  113
CERIA BULK                              
 O  -1.855521816559E+00  1.123260173572E+00  3.946057713294E+00
 O   1.319189472113E+01  5.478108329557E+00  8.968212667880E-01
 O   1.705013517680E+01  5.475324726682E+00  8.546663546240E-01
 O   1.798204717985E+00  1.037710106696E+00  4.163968814860E+00
 O   1.133716147687E+01  4.299128107896E+00  3.931398526704E+00
 O  -5.748630219323E+00  1.170527577911E+00  4.119460310953E+00
 O   1.326147539594E+01  3.231265201959E+00  2.415990973462E+00
 O   1.118979529718E+01  6.554329639636E+00  2.516272538052E+00
 CE  1.808431480504E+00 -1.044601019975E+00  3.106739829070E+00
 CE -4.965199659000E-03  2.185051069799E+00  3.217088430444E+00
 CE  3.770608524589E+00 -4.437201122562E+00  3.288993613460E+00
 CE  5.689355651578E+00 -1.062552651120E+00  3.336108457217E+00
 CE  3.799836165843E+00  2.199066726038E+00  3.255666357621E+00
 CE  7.553747067639E+00 -4.346225461781E+00  3.214923678057E+00
 CE -1.901589754380E+00 -1.089044085889E+00  3.231186668602E+00
 CE -3.776186402727E+00  2.157984648640E+00  3.222784097431E+00
 CE  4.344213823000E-03 -4.337556417475E+00  3.210668064162E+00
 O   4.858292910000E-04  9.174502893000E-03  2.358439991874E+00
 O  -1.930312031305E+00  3.283207860445E+00  2.409934146334E+00
 O   1.884197738245E+01  4.358153948915E+00  4.087487292334E+00
 O   3.701929042661E+00 -2.054994534600E-02  2.440837029294E+00
 O   1.511124031058E+01  4.412893280364E+00  4.018340759646E+00
 O   1.699113925096E+01  3.307917125756E+00  2.409439063924E+00
 O  -3.778542766870E+00  2.999317839300E-02  2.451173344817E+00
 O   1.699479620065E+01  7.702637012689E+00  4.064390158257E+00
 O   1.334862405160E+01  7.531525234573E+00  3.908391961764E+00
 O   1.863561937920E+00 -1.096293977461E+00  8.192790363290E-01
 O  -4.798469613000E-03  2.196865260564E+00  8.488327934930E-01
 O   3.757697257856E+00 -4.365956623361E+00  8.411094421390E-01
 O   5.664676722399E+00 -1.078299626366E+00  8.503583343800E-01
 O   3.800226061615E+00  2.167331090316E+00  8.586417942850E-01
 O   1.895519961559E+01  6.590779144047E+00  2.461468354541E+00
 O  -1.906143785296E+00 -1.088489009056E+00  8.462071469860E-01
 O  -3.781309343853E+00  2.169688242279E+00  8.492514162320E-01
 O   1.519475303366E+01  6.537320666887E+00  2.364265707460E+00
 CE -1.939906103300E-02  8.567817015000E-03  4.948308877000E-03
 CE -1.886037447516E+00  3.267730421783E+00  2.922231129300E-02
 CE  1.892842346939E+00 -3.274984506446E+00  2.541811106800E-02
 CE  3.786878900561E+00  6.323094737000E-03  4.785354573100E-02
 CE  1.893476016614E+00  3.265227696948E+00  4.136546964200E-02
 CE  5.640573948946E+00 -3.248869683390E+00  6.735295833300E-02
 CE -3.789977914197E+00 -1.442860416300E-02  4.732771197200E-02
 CE -5.655315508475E+00  3.250970175841E+00  3.897309117700E-02
 CE -1.891672067305E+00 -3.262957150608E+00  3.723952861300E-02
 O  -1.890145301763E+00  1.087475540083E+00 -7.805787713370E-01
 O  -3.769934047222E+00  4.342473519202E+00 -7.890740991140E-01
 O  -1.386572429400E-02 -2.180004376035E+00 -7.814289680720E-01
 O   1.886550626948E+00  1.099039806896E+00 -7.693115045780E-01
 O   1.468726174100E-02  4.360210948095E+00 -7.725522309950E-01
 O   3.770269189048E+00 -2.173158945174E+00 -7.696502293430E-01
 O  -5.665325187140E+00  1.078592019396E+00 -7.787550531040E-01
 O  -7.551446888536E+00  4.347497159077E+00 -7.547302152260E-01
 O  -3.783579195094E+00 -2.197285608416E+00 -7.693185130960E-01
 O   0.000000000000E+00  0.000000000000E+00 -2.343480358560E+00
 O  -1.882359509981E+00  3.262528784580E+00 -2.343480358560E+00
 O   1.882359509986E+00 -3.262528784574E+00 -2.343480358560E+00
 O   3.775545753797E+00  6.394834605000E-03 -2.343480358560E+00
 O   1.893186243811E+00  3.268923619190E+00 -2.343480358560E+00
 O   5.657905263792E+00 -3.256133949969E+00 -2.343480358560E+00
 O  -3.775545753797E+00 -6.394834616000E-03 -2.343480358560E+00
 O  -5.657905263792E+00  3.256133949969E+00 -2.343480358560E+00
 O  -1.893186243816E+00 -3.268923619185E+00 -2.343480358560E+00
 CE -1.885968421259E+00  1.085377983322E+00 -3.124640478080E+00
 CE -3.768327931236E+00  4.347906767907E+00 -3.124640478080E+00
 CE -3.608911276000E-03 -2.177150801253E+00 -3.124640478080E+00
 CE  1.889577332536E+00  1.091772817933E+00 -3.124640478080E+00
 CE  7.217822552000E-03  4.354301602512E+00 -3.124640478080E+00
 CE  3.771936842523E+00 -2.170755966645E+00 -3.124640478080E+00
 CE -5.661514175100E+00  1.078983148698E+00 -3.124640478080E+00
 CE -7.543873685041E+00  4.341511933300E+00 -3.124640478080E+00
 CE -3.779154665076E+00 -2.183545635867E+00 -3.124640478080E+00
 O   1.885968421259E+00 -1.085377983322E+00 -3.905800597599E+00
 O   3.608911276000E-03  2.177150801253E+00 -3.905800597599E+00
 O   3.768327931236E+00 -4.347906767907E+00 -3.905800597599E+00
 O   5.661514175100E+00 -1.078983148698E+00 -3.905800597599E+00
 O   3.779154665080E+00  2.183545635868E+00 -3.905800597599E+00
 O   7.543873685041E+00 -4.341511933300E+00 -3.905800597599E+00
 O  -1.889577332536E+00 -1.091772817933E+00 -3.905800597599E+00
 O  -3.771936842526E+00  2.170755966644E+00 -3.905800597599E+00
 O  -7.217822553000E-03 -4.354301602513E+00 -3.905800597599E+00
 O  -6.199682314230E-01 -4.319033080311E+00  5.977648691960E+00
 H  -1.332624660545E+00 -4.830887155788E+00  5.491435138285E+00
 O   1.694848879988E+00 -5.748267502187E+00  6.672212412518E+00
 H   8.925403580720E-01 -5.263321016613E+00  6.946033323919E+00
 H   1.704038503499E+00 -5.595680597098E+00  5.669676115008E+00
 H  -9.000449939250E-01 -3.389273722122E+00  6.019438390297E+00
 O  -5.120229406120E-01  2.052035713105E+00  5.994427702901E+00
 H  -1.279789699065E+00  1.618844081162E+00  5.539806598898E+00
 O  -3.894424233324E+00  1.503555092551E+00  5.918293930210E+00
 H  -3.953021101228E+00  2.360257776800E+00  6.421834429260E+00
 H  -4.803646865346E+00  1.281554969592E+00  5.588494825189E+00
 H  -1.192551765480E-01  1.356106246964E+00  6.547957574803E+00
 O  -2.371762681131E+00 -8.641578948920E-01  5.841544146678E+00
 H  -2.781955318910E+00  2.240530332800E-02  5.993720859240E+00
 H  -3.141162195261E+00 -1.464798288524E+00  5.848494507604E+00
 H   5.146232510762E+00 -1.667704053305E+00  6.318924567943E+00
 O   6.054380824306E+00 -1.683919502061E+00  5.948192945287E+00
 H   6.376045459190E+00 -2.607899070813E+00  6.020772347594E+00
 O   1.119893872215E+00 -6.811073879670E-01  6.075022861215E+00
 H   4.623273041760E-01 -1.254146464157E+00  5.593954274971E+00
 H   1.272354838346E+00  1.108058309220E-01  5.473686374477E+00
 O   7.067140989956E+00 -4.488621193864E+00  5.906601869857E+00
 H   2.003869366892E+00  4.662155601059E+00  6.353523534344E+00
 H   5.895007235020E-01  4.808906050689E+00  5.682728909072E+00
 O   3.201736602919E+00  2.304043694034E+00  5.961164240495E+00
 H   2.487228303186E+00  1.746356036667E+00  5.539671289410E+00
 H   3.777899579161E+00  1.697681149347E+00  6.451372501854E+00
 O  -7.299382287245E+00  1.515145249583E+01  5.906296697146E+00
 H  -7.897578166733E+00  1.453892496455E+01  6.389008457842E+00
 O  -2.228821887803E+00  7.920373917418E+00  5.957461969378E+00
 O  -2.085922702980E+00  7.740441293211E+00  4.470082260015E+00
 H  -3.149138780741E+00  8.356222028558E+00  6.059703700517E+00
 H  -1.966992012226E+00  6.268033188553E+00  6.152050746767E+00
  113
CERIA BULK                              
 O  -1.855521816559E+00  1.123260173572E+00  3.946057713294E+00
 O   1.319189472113E+01  5.478108329557E+00  8.968212667877E-01
 O   1.705013517680E+01  5.475324726682E+00  8.546663546237E-01
 O   1.798204717985E+00  1.037710106696E+00  4.163968814860E+00
 O   1.133716147687E+01  4.299128107896E+00  3.931398526704E+00
 O  -5.748630219323E+00  1.170527577911E+00  4.119460310953E+00
 O   1.326147539595E+01  3.231265201959E+00  2.415990973462E+00
 O   1.118979529718E+01  6.554329639636E+00  2.516272538052E+00
 CE  1.808431480504E+00 -1.044601019975E+00  3.106739829070E+00
 CE -4.965199658737E-03  2.185051069799E+00  3.217088430444E+00
 CE  3.770608524589E+00 -4.437201122562E+00  3.288993613460E+00
 CE  5.689355651578E+00 -1.062552651120E+00  3.336108457217E+00
 CE  3.799836165843E+00  2.199066726038E+00  3.255666357621E+00
 CE  7.553747067639E+00 -4.346225461781E+00  3.214923678057E+00
 CE -1.901589754380E+00 -1.089044085889E+00  3.231186668602E+00
 CE -3.776186402727E+00  2.157984648640E+00  3.222784097431E+00
 CE  4.344213822747E-03 -4.337556417475E+00  3.210668064162E+00
 O   4.858292907542E-04  9.174502893485E-03  2.358439991874E+00
 O  -1.930312031305E+00  3.283207860445E+00  2.409934146334E+00
 O   1.884197738245E+01  4.358153948915E+00  4.087487292334E+00
 O   3.701929042661E+00 -2.054994534615E-02  2.440837029294E+00
 O   1.511124031058E+01  4.412893280364E+00  4.018340759646E+00
 O   1.699113925096E+01  3.307917125756E+00  2.409439063924E+00
 O  -3.778542766870E+00  2.999317839333E-02  2.451173344817E+00
 O   1.699479620065E+01  7.702637012689E+00  4.064390158257E+00
 O   1.334862405160E+01  7.531525234574E+00  3.908391961764E+00
 O   1.863561937920E+00 -1.096293977461E+00  8.192790363295E-01
 O  -4.798469613170E-03  2.196865260564E+00  8.488327934931E-01
 O   3.757697257856E+00 -4.365956623361E+00  8.411094421386E-01
 O   5.664676722399E+00 -1.078299626366E+00  8.503583343802E-01
 O   3.800226061615E+00  2.167331090316E+00  8.586417942846E-01
 O   1.895519961559E+01  6.590779144047E+00  2.461468354541E+00
 O  -1.906143785296E+00 -1.088489009056E+00  8.462071469862E-01
 O  -3.781309343853E+00  2.169688242279E+00  8.492514162318E-01
 O   1.519475303366E+01  6.537320666887E+00  2.364265707460E+00
 CE -1.939906103348E-02  8.567817014646E-03  4.948308876835E-03
 CE -1.886037447516E+00  3.267730421783E+00  2.922231129268E-02
 CE  1.892842346939E+00 -3.274984506446E+00  2.541811106842E-02
 CE  3.786878900561E+00  6.323094737160E-03  4.785354573146E-02
 CE  1.893476016614E+00  3.265227696948E+00  4.136546964207E-02
 CE  5.640573948946E+00 -3.248869683390E+00  6.735295833302E-02
 CE -3.789977914197E+00 -1.442860416300E-02  4.732771197187E-02
 CE -5.655315508475E+00  3.250970175841E+00  3.897309117725E-02
 CE -1.891672067305E+00 -3.262957150608E+00  3.723952861332E-02
 O  -1.890145301763E+00  1.087475540083E+00 -7.805787713375E-01
 O  -3.769934047222E+00  4.342473519202E+00 -7.890740991138E-01
 O  -1.386572429430E-02 -2.180004376035E+00 -7.814289680717E-01
 O   1.886550626948E+00  1.099039806896E+00 -7.693115045776E-01
 O   1.468726174074E-02  4.360210948095E+00 -7.725522309953E-01
 O   3.770269189048E+00 -2.173158945173E+00 -7.696502293430E-01
 O  -5.665325187140E+00  1.078592019396E+00 -7.787550531041E-01
 O  -7.551446888536E+00  4.347497159077E+00 -7.547302152263E-01
 O  -3.783579195094E+00 -2.197285608416E+00 -7.693185130956E-01
 O   0.000000000000E+00  0.000000000000E+00 -2.343480358560E+00
 O  -1.882359509981E+00  3.262528784580E+00 -2.343480358560E+00
 O   1.882359509986E+00 -3.262528784574E+00 -2.343480358560E+00
 O   3.775545753797E+00  6.394834604917E-03 -2.343480358560E+00
 O   1.893186243811E+00  3.268923619190E+00 -2.343480358560E+00
 O   5.657905263792E+00 -3.256133949969E+00 -2.343480358560E+00
 O  -3.775545753797E+00 -6.394834615906E-03 -2.343480358560E+00
 O  -5.657905263792E+00  3.256133949969E+00 -2.343480358560E+00
 O  -1.893186243816E+00 -3.268923619185E+00 -2.343480358560E+00
 CE -1.885968421259E+00  1.085377983322E+00 -3.124640478080E+00
 CE -3.768327931236E+00  4.347906767907E+00 -3.124640478080E+00
 CE -3.608911275689E-03 -2.177150801253E+00 -3.124640478080E+00
 CE  1.889577332536E+00  1.091772817933E+00 -3.124640478080E+00
 CE  7.217822552371E-03  4.354301602512E+00 -3.124640478080E+00
 CE  3.771936842523E+00 -2.170755966645E+00 -3.124640478080E+00
 CE -5.661514175100E+00  1.078983148698E+00 -3.124640478080E+00
 CE -7.543873685041E+00  4.341511933300E+00 -3.124640478080E+00
 CE -3.779154665076E+00 -2.183545635867E+00 -3.124640478080E+00
 O   1.885968421259E+00 -1.085377983322E+00 -3.905800597599E+00
 O   3.608911275689E-03  2.177150801253E+00 -3.905800597599E+00
 O   3.768327931236E+00 -4.347906767907E+00 -3.905800597599E+00
 O   5.661514175100E+00 -1.078983148698E+00 -3.905800597599E+00
 O   3.779154665080E+00  2.183545635868E+00 -3.905800597599E+00
 O   7.543873685041E+00 -4.341511933300E+00 -3.905800597599E+00
 O  -1.889577332536E+00 -1.091772817933E+00 -3.905800597599E+00
 O  -3.771936842526E+00  2.170755966644E+00 -3.905800597599E+00
 O  -7.217822553370E-03 -4.354301602513E+00 -3.905800597599E+00
 O  -6.199682314231E-01 -4.319033080311E+00  5.977648691960E+00
 H  -1.332624660545E+00 -4.830887155788E+00  5.491435138285E+00
 O   1.694848879988E+00 -5.748267502187E+00  6.672212412519E+00
 H   8.925403580718E-01 -5.263321016613E+00  6.946033323920E+00
 H   1.704038503499E+00 -5.595680597098E+00  5.669676115008E+00
 H  -9.000449939252E-01 -3.389273722122E+00  6.019438390297E+00
 O  -5.120229406119E-01  2.052035713105E+00  5.994427702901E+00
 H  -1.279789699065E+00  1.618844081162E+00  5.539806598897E+00
 O  -3.894424233324E+00  1.503555092551E+00  5.918293930210E+00
 H  -3.953021101228E+00  2.360257776800E+00  6.421834429260E+00
 H  -4.803646865346E+00  1.281554969592E+00  5.588494825189E+00
 H  -1.192551765484E-01  1.356106246964E+00  6.547957574803E+00
 O  -2.371762681131E+00 -8.641578948922E-01  5.841544146678E+00
 H  -2.781955318910E+00  2.240530332801E-02  5.993720859240E+00
 H  -3.141162195261E+00 -1.464798288524E+00  5.848494507604E+00
 H   5.146232510762E+00 -1.667704053305E+00  6.318924567943E+00
 O   6.054380824306E+00 -1.683919502061E+00  5.948192945287E+00
 H   6.376045459190E+00 -2.607899070813E+00  6.020772347594E+00
 O   1.119893872215E+00 -6.811073879675E-01  6.075022861215E+00
 H   4.623273041762E-01 -1.254146464157E+00  5.593954274970E+00
 H   1.272354838346E+00  1.108058309224E-01  5.473686374477E+00
 O   7.067140989956E+00 -4.488621193864E+00  5.906601869857E+00
 H   2.003869366892E+00  4.662155601059E+00  6.353523534344E+00
 H   5.895007235018E-01  4.808906050689E+00  5.682728909072E+00
 O   3.201736602919E+00  2.304043694034E+00  5.961164240495E+00
 H   2.487228303186E+00  1.746356036667E+00  5.539671289410E+00
 H   3.777899579161E+00  1.697681149347E+00  6.451372501854E+00
 O  -7.299382287245E+00  1.515145249583E+01  5.906296697146E+00
 H  -7.897578166732E+00  1.453892496455E+01  6.389008457842E+00
 O  -2.228821887803E+00  7.920373917418E+00  5.957461969378E+00
 O  -2.085922702980E+00  7.740441293212E+00  4.470082260015E+00
 H  -3.149138780741E+00  8.356222028558E+00  6.059703700517E+00
 H  -1.966992012226E+00  6.268033188553E+00  6.152050746767E+00
  113
CERIA BULK                               E -1.7735455643664E+04 DE-3.1E-08(  7)
 O  -1.855535667438E+00  1.123188947283E+00  3.946012013565E+00
 O   1.319184405890E+01  5.478125570416E+00  8.967812825403E-01
 O   1.705015346232E+01  5.475272509800E+00  8.546342200424E-01
 O   1.798246032134E+00  1.037741203888E+00  4.163883133047E+00
 O   1.133711893347E+01  4.299140534099E+00  3.931353529001E+00
 O  -5.748602261036E+00  1.170532940709E+00  4.119467723940E+00
 O   1.326146379112E+01  3.231252085636E+00  2.415954945602E+00
 O   1.118980168901E+01  6.554328808469E+00  2.516299450243E+00
 CE  1.808407509624E+00 -1.044611132342E+00  3.106770239604E+00
 CE -4.935477050085E-03  2.184988154147E+00  3.217146014103E+00
 CE  3.770636185032E+00 -4.437169681823E+00  3.288972684046E+00
 CE  5.689366679382E+00 -1.062532836447E+00  3.336152535583E+00
 CE  3.799769650803E+00  2.199065052346E+00  3.255609630361E+00
 CE  7.553717265018E+00 -4.346200264771E+00  3.214926262840E+00
 CE -1.901592049228E+00 -1.089050642464E+00  3.231233015901E+00
 CE -3.776184226035E+00  2.157965391921E+00  3.222827813310E+00
 CE  4.315900003357E-03 -4.337560492164E+00  3.210693490492E+00
 O   5.193258348047E-04  9.168660281282E-03  2.358417854061E+00
 O  -1.930304439171E+00  3.283191198256E+00  2.409943210285E+00
 O   1.884198432552E+01  4.358164954481E+00  4.087415612346E+00
 O   3.701937951212E+00 -2.059909898974E-02  2.440815266317E+00
 O   1.511122389949E+01  4.412830859091E+00  4.018300483139E+00
 O   1.699111806695E+01  3.307922388892E+00  2.409398817693E+00
 O  -3.778604769095E+00  2.997149892659E-02  2.451179755040E+00
 O   1.699477616393E+01  7.702636200062E+00  4.064424133671E+00
 O   1.334862012384E+01  7.531530254191E+00  3.908400933172E+00
 O   1.863559531494E+00 -1.096278274810E+00  8.192471842059E-01
 O  -4.829710712147E-03  2.196859024247E+00  8.488061187688E-01
 O   3.757743871605E+00 -4.365985897980E+00  8.411174214477E-01
 O   5.664668471104E+00 -1.078287140156E+00  8.503340003784E-01
 O   3.800189036626E+00  2.167341220481E+00  8.585536566833E-01
 O   1.895516737881E+01  6.590822379403E+00  2.461427587122E+00
 O  -1.906154226187E+00 -1.088496584087E+00  8.462091796341E-01
 O  -3.781289977853E+00  2.169658612253E+00  8.492916653462E-01
 O   1.519478242099E+01  6.537217008451E+00  2.364232653052E+00
 CE -1.940292327426E-02  8.527336961576E-03  4.951113700623E-03
 CE -1.886056628420E+00  3.267738073213E+00  2.922767988337E-02
 CE  1.892858361652E+00 -3.274947466819E+00  2.545026999467E-02
 CE  3.786792737511E+00  6.323429365111E-03  4.786947757100E-02
 CE  1.893464344493E+00  3.265208036435E+00  4.136956161846E-02
 CE  5.640560648570E+00 -3.248859825004E+00  6.735335924749E-02
 CE -3.789922572848E+00 -1.447108541711E-02  4.735873224459E-02
 CE -5.655291388408E+00  3.250955909255E+00  3.892773544578E-02
 CE -1.891629832248E+00 -3.262947356765E+00  3.728453305001E-02
 O  -1.890156929079E+00  1.087507364914E+00 -7.806078381601E-01
 O  -3.769903965519E+00  4.342432274771E+00 -7.890688759812E-01
 O  -1.388426483573E-02 -2.179980266102E+00 -7.814346535756E-01
 O   1.886561332564E+00  1.099046888405E+00 -7.693357349328E-01
 O   1.466352007498E-02  4.360187914446E+00 -7.725747382869E-01
 O   3.770287458610E+00 -2.173147729789E+00 -7.696355509643E-01
 O  -5.665299713682E+00  1.078619516643E+00 -7.787503809825E-01
 O  -7.551432132558E+00  4.347550028355E+00 -7.547103311948E-01
 O  -3.783559036781E+00 -2.197268860777E+00 -7.693169781039E-01
 O   0.000000000000E+00  0.000000000000E+00 -2.343480358560E+00
 O  -1.882358890140E+00  3.262529647564E+00 -2.343480358560E+00
 O   1.882358890145E+00 -3.262529647558E+00 -2.343480358560E+00
 O   3.775544356049E+00  6.394747155720E-03 -2.343480358560E+00
 O   1.893185465905E+00  3.268924394725E+00 -2.343480358560E+00
 O   5.657903246203E+00 -3.256134900402E+00 -2.343480358560E+00
 O  -3.775544356049E+00 -6.394747166709E-03 -2.343480358560E+00
 O  -5.657903246203E+00  3.256134900402E+00 -2.343480358560E+00
 O  -1.893185465910E+00 -3.268924394720E+00 -2.343480358560E+00
 CE -1.885967748730E+00  1.085378300133E+00 -3.124640478080E+00
 CE -3.768326638865E+00  4.347907947703E+00 -3.124640478080E+00
 CE -3.608858587380E-03 -2.177151347426E+00 -3.124640478080E+00
 CE  1.889576607318E+00  1.091773047295E+00 -3.124640478080E+00
 CE  7.217717175753E-03  4.354302694858E+00 -3.124640478080E+00
 CE  3.771935497464E+00 -2.170756600268E+00 -3.124640478080E+00
 CE -5.661512104823E+00  1.078983552958E+00 -3.124640478080E+00
 CE -7.543870994923E+00  4.341513200544E+00 -3.124640478080E+00
 CE -3.779153214640E+00 -2.183546094591E+00 -3.124640478080E+00
 O   1.885967748730E+00 -1.085378300133E+00 -3.905800597599E+00
 O   3.608858587380E-03  2.177151347426E+00 -3.905800597599E+00
 O   3.768326638865E+00 -4.347907947703E+00 -3.905800597599E+00
 O   5.661512104823E+00 -1.078983552958E+00 -3.905800597599E+00
 O   3.779153214645E+00  2.183546094592E+00 -3.905800597599E+00
 O   7.543870994923E+00 -4.341513200544E+00 -3.905800597599E+00
 O  -1.889576607318E+00 -1.091773047295E+00 -3.905800597599E+00
 O  -3.771935497467E+00  2.170756600267E+00 -3.905800597599E+00
 O  -7.217717176751E-03 -4.354302694859E+00 -3.905800597599E+00
 O  -6.199318576756E-01 -4.319055165540E+00  5.977655256353E+00
 H  -1.332665087064E+00 -4.830834146049E+00  5.491504973907E+00
 O   1.694852276811E+00 -5.748256937687E+00  6.672240469811E+00
 H   8.925274221802E-01 -5.263337916607E+00  6.945945067362E+00
 H   1.704085240583E+00 -5.595692050851E+00  5.669683105901E+00
 H  -9.000457000292E-01 -3.389233185086E+00  6.019437326651E+00
 O  -5.119988651534E-01  2.052008645747E+00  5.994403096440E+00
 H  -1.279702688814E+00  1.618856685200E+00  5.539816187637E+00
 O  -3.894385952873E+00  1.503500881531E+00  5.918214332051E+00
 H  -3.953021122191E+00  2.360251480207E+00  6.421946542146E+00
 H  -4.803689539359E+00  1.281577948819E+00  5.588532599215E+00
 H  -1.193662228415E-01  1.356194292616E+00  6.548007383419E+00
 O  -2.371749233186E+00 -8.641977143347E-01  5.841530343924E+00
 H  -2.781985780118E+00  2.242645228247E-02  5.993756809363E+00
 H  -3.141141428600E+00 -1.464807799836E+00  5.848572847270E+00
 H   5.146253427571E+00 -1.667726318503E+00  6.318948998686E+00
 O   6.054329870605E+00 -1.683921236444E+00  5.948234185003E+00
 H   6.376007426040E+00 -2.607880230821E+00  6.020813577345E+00
 O   1.119900503184E+00 -6.811082861642E-01  6.074983168990E+00
 H   4.623486746279E-01 -1.254150340209E+00  5.593890117923E+00
 H   1.272376035687E+00  1.108044862137E-01  5.473694628640E+00
 O   7.067089219939E+00 -4.488602620031E+00  5.906640645396E+00
 H   2.003909411653E+00  4.661981577405E+00  6.353381646932E+00
 H   5.895384511080E-01  4.808959269092E+00  5.682764267343E+00
 O   3.201689287166E+00  2.304061076077E+00  5.961065748669E+00
 H   2.487222767400E+00  1.746353881540E+00  5.539702474514E+00
 H   3.777811950176E+00  1.697763374195E+00  6.451450633329E+00
 O  -7.299343443016E+00  1.515141939940E+01  5.906315515699E+00
 H  -7.897598928205E+00  1.453896887811E+01  6.389049215334E+00
 O  -2.228760012244E+00  7.920368382388E+00  5.957497911959E+00
 O  -2.085926219220E+00  7.740494747399E+00  4.470083228760E+00
 H  -3.149181001924E+00  8.356272642875E+00  6.059755809493E+00
 H  -1.966989054463E+00  6.268023471375E+00  6.151999190528E+00
  113
CERIA BULK                               E -1.7735455646537E+04 DE-6.7E-08(  6)
 O  -1.855535667438E+00  1.123188947283E+00  3.946012013565E+00
 O   1.319184405890E+01  5.478125570416E+00  8.967812825403E-01
 O   1.705015346232E+01  5.475272509800E+00  8.546342200424E-01
 O   1.798246032134E+00  1.037741203888E+00  4.163883133047E+00
 O   1.133711893347E+01  4.299140534099E+00  3.931353529001E+00
 O  -5.748602261036E+00  1.170532940709E+00  4.119467723940E+00
 O   1.326146379112E+01  3.231252085636E+00  2.415954945602E+00
 O   1.118980168901E+01  6.554328808469E+00  2.516299450243E+00
 CE  1.808407509624E+00 -1.044611132342E+00  3.106770239604E+00
 CE -4.935477050085E-03  2.184988154147E+00  3.217146014103E+00
 CE  3.770636185032E+00 -4.437169681823E+00  3.288972684046E+00
 CE  5.689366679382E+00 -1.062532836447E+00  3.336152535583E+00
 CE  3.799769650803E+00  2.199065052346E+00  3.255609630361E+00
 CE  7.553717265018E+00 -4.346200264771E+00  3.214926262840E+00
 CE -1.901592049228E+00 -1.089050642464E+00  3.231233015901E+00
 CE -3.776184226035E+00  2.157965391921E+00  3.222827813310E+00
 CE  4.315900003357E-03 -4.337560492164E+00  3.210693490492E+00
 O   5.193258348047E-04  9.168660281282E-03  2.358417854061E+00
 O  -1.930304439171E+00  3.283191198256E+00  2.409943210285E+00
 O   1.884198432552E+01  4.358164954481E+00  4.087415612346E+00
 O   3.701937951212E+00 -2.059909898974E-02  2.440815266317E+00
 O   1.511122389949E+01  4.412830859091E+00  4.018300483139E+00
 O   1.699111806695E+01  3.307922388892E+00  2.409398817693E+00
 O  -3.778604769095E+00  2.997149892659E-02  2.451179755040E+00
 O   1.699477616393E+01  7.702636200062E+00  4.064424133671E+00
 O   1.334862012384E+01  7.531530254191E+00  3.908400933172E+00
 O   1.863559531494E+00 -1.096278274810E+00  8.192471842059E-01
 O  -4.829710712147E-03  2.196859024247E+00  8.488061187688E-01
 O   3.757743871605E+00 -4.365985897980E+00  8.411174214477E-01
 O   5.664668471104E+00 -1.078287140156E+00  8.503340003784E-01
 O   3.800189036626E+00  2.167341220481E+00  8.585536566833E-01
 O   1.895516737881E+01  6.590822379403E+00  2.461427587122E+00
 O  -1.906154226187E+00 -1.088496584087E+00  8.462091796341E-01
 O  -3.781289977853E+00  2.169658612253E+00  8.492916653462E-01
 O   1.519478242099E+01  6.537217008451E+00  2.364232653052E+00
 CE -1.940292327426E-02  8.527336961576E-03  4.951113700623E-03
 CE -1.886056628420E+00  3.267738073213E+00  2.922767988337E-02
 CE  1.892858361652E+00 -3.274947466819E+00  2.545026999467E-02
 CE  3.786792737511E+00  6.323429365111E-03  4.786947757100E-02
 CE  1.893464344493E+00  3.265208036435E+00  4.136956161846E-02
 CE  5.640560648570E+00 -3.248859825004E+00  6.735335924749E-02
 CE -3.789922572848E+00 -1.447108541711E-02  4.735873224459E-02
 CE -5.655291388408E+00  3.250955909255E+00  3.892773544578E-02
 CE -1.891629832248E+00 -3.262947356765E+00  3.728453305001E-02
 O  -1.890156929079E+00  1.087507364914E+00 -7.806078381601E-01
 O  -3.769903965519E+00  4.342432274771E+00 -7.890688759812E-01
 O  -1.388426483573E-02 -2.179980266102E+00 -7.814346535756E-01
 O   1.886561332564E+00  1.099046888405E+00 -7.693357349328E-01
 O   1.466352007498E-02  4.360187914446E+00 -7.725747382869E-01
 O   3.770287458610E+00 -2.173147729789E+00 -7.696355509643E-01
 O  -5.665299713682E+00  1.078619516643E+00 -7.787503809825E-01
 O  -7.551432132558E+00  4.347550028355E+00 -7.547103311948E-01
 O  -3.783559036781E+00 -2.197268860777E+00 -7.693169781039E-01
 O   0.000000000000E+00  0.000000000000E+00 -2.343480358560E+00
 O  -1.882358890140E+00  3.262529647564E+00 -2.343480358560E+00
 O   1.882358890145E+00 -3.262529647558E+00 -2.343480358560E+00
 O   3.775544356049E+00  6.394747155720E-03 -2.343480358560E+00
 O   1.893185465905E+00  3.268924394725E+00 -2.343480358560E+00
 O   5.657903246203E+00 -3.256134900402E+00 -2.343480358560E+00
 O  -3.775544356049E+00 -6.394747166709E-03 -2.343480358560E+00
 O  -5.657903246203E+00  3.256134900402E+00 -2.343480358560E+00
 O  -1.893185465910E+00 -3.268924394720E+00 -2.343480358560E+00
 CE -1.885967748730E+00  1.085378300133E+00 -3.124640478080E+00
 CE -3.768326638865E+00  4.347907947703E+00 -3.124640478080E+00
 CE -3.608858587380E-03 -2.177151347426E+00 -3.124640478080E+00
 CE  1.889576607318E+00  1.091773047295E+00 -3.124640478080E+00
 CE  7.217717175753E-03  4.354302694858E+00 -3.124640478080E+00
 CE  3.771935497464E+00 -2.170756600268E+00 -3.124640478080E+00
 CE -5.661512104823E+00  1.078983552958E+00 -3.124640478080E+00
 CE -7.543870994923E+00  4.341513200544E+00 -3.124640478080E+00
 CE -3.779153214640E+00 -2.183546094591E+00 -3.124640478080E+00
 O   1.885967748730E+00 -1.085378300133E+00 -3.905800597599E+00
 O   3.608858587380E-03  2.177151347426E+00 -3.905800597599E+00
 O   3.768326638865E+00 -4.347907947703E+00 -3.905800597599E+00
 O   5.661512104823E+00 -1.078983552958E+00 -3.905800597599E+00
 O   3.779153214645E+00  2.183546094592E+00 -3.905800597599E+00
 O   7.543870994923E+00 -4.341513200544E+00 -3.905800597599E+00
 O  -1.889576607318E+00 -1.091773047295E+00 -3.905800597599E+00
 O  -3.771935497467E+00  2.170756600267E+00 -3.905800597599E+00
 O  -7.217717176751E-03 -4.354302694859E+00 -3.905800597599E+00
 O  -6.199318576756E-01 -4.319055165540E+00  5.977655256353E+00
 H  -1.332665087064E+00 -4.830834146049E+00  5.491504973907E+00
 O   1.694852276811E+00 -5.748256937687E+00  6.672240469811E+00
 H   8.925274221802E-01 -5.263337916607E+00  6.945945067362E+00
 H   1.704085240583E+00 -5.595692050851E+00  5.669683105901E+00
 H  -9.000457000292E-01 -3.389233185086E+00  6.019437326651E+00
 O  -5.119988651534E-01  2.052008645747E+00  5.994403096440E+00
 H  -1.279702688814E+00  1.618856685200E+00  5.539816187637E+00
 O  -3.894385952873E+00  1.503500881531E+00  5.918214332051E+00
 H  -3.953021122191E+00  2.360251480207E+00  6.421946542146E+00
 H  -4.803689539359E+00  1.281577948819E+00  5.588532599215E+00
 H  -1.193662228415E-01  1.356194292616E+00  6.548007383419E+00
 O  -2.371749233186E+00 -8.641977143347E-01  5.841530343924E+00
 H  -2.781985780118E+00  2.242645228247E-02  5.993756809363E+00
 H  -3.141141428600E+00 -1.464807799836E+00  5.848572847270E+00
 H   5.146253427571E+00 -1.667726318503E+00  6.318948998686E+00
 O   6.054329870605E+00 -1.683921236444E+00  5.948234185003E+00
 H   6.376007426040E+00 -2.607880230821E+00  6.020813577345E+00
 O   1.119900503184E+00 -6.811082861642E-01  6.074983168990E+00
 H   4.623486746279E-01 -1.254150340209E+00  5.593890117923E+00
 H   1.272376035687E+00  1.108044862137E-01  5.473694628640E+00
 O   7.067089219939E+00 -4.488602620031E+00  5.906640645396E+00
 H   2.003909411653E+00  4.661981577405E+00  6.353381646932E+00
 H   5.895384511080E-01  4.808959269092E+00  5.682764267343E+00
 O   3.201689287166E+00  2.304061076077E+00  5.961065748669E+00
 H   2.487222767400E+00  1.746353881540E+00  5.539702474514E+00
 H   3.777811950176E+00  1.697763374195E+00  6.451450633329E+00
 O  -7.299343443016E+00  1.515141939940E+01  5.906315515699E+00
 H  -7.897598928205E+00  1.453896887811E+01  6.389049215334E+00
 O  -2.228760012244E+00  7.920368382388E+00  5.957497911959E+00
 O  -2.085926219220E+00  7.740494747399E+00  4.470083228760E+00
 H  -3.149181001924E+00  8.356272642875E+00  6.059755809493E+00
 H  -1.966989054463E+00  6.268023471375E+00  6.151999190528E+00
