  115
CERIA BULK                              
 O  -1.824891892002E+00  1.031364577188E+00  3.885528151736E+00
 O  -3.772823560835E+00  4.307316092348E+00  4.056335247429E+00
 O  -2.038941798500E-02 -2.121902450645E+00  4.083302119646E+00
 O   1.913898687532E+00  1.097566827033E+00  4.182915172777E+00
 O  -8.346346943800E-02  4.382376933601E+00  4.264662854707E+00
 O   3.767052407453E+00 -2.207922807318E+00  3.883952500387E+00
 O  -5.690959376245E+00  1.177626845215E+00  4.082905172188E+00
 O  -3.783551614413E+00 -2.099770230799E+00  4.043648459803E+00
 CE  1.880150983704E+00 -1.097130512053E+00  3.328325887226E+00
 CE  7.285242239997E-04  2.114005768420E+00  3.292224020344E+00
 CE  3.704995462804E+00 -4.304195131839E+00  3.238903232797E+00
 CE  5.622897018377E+00 -1.070116305481E+00  3.310717573360E+00
 CE  3.748910773130E+00  2.123657670449E+00  3.201744702985E+00
 CE  7.499521114104E+00 -4.267249409459E+00  3.378823260223E+00
 CE -1.853802704188E+00 -1.087936757546E+00  3.264358708512E+00
 CE -3.756767253358E+00  2.168866904476E+00  3.296800610332E+00
 CE  3.315399888800E-02 -4.333374465394E+00  3.339000252886E+00
 O   8.430996888700E-02 -3.446812287000E-03  2.440026432206E+00
 O  -1.830551354375E+00  3.286517994965E+00  2.468717503592E+00
 O   1.821699041934E+00 -3.258818815451E+00  2.464494594884E+00
 O   3.739663972999E+00  1.260722131900E-02  2.442410940556E+00
 O   1.859529409468E+00  3.304996313000E+00  2.531323975055E+00
 O   5.670045577865E+00 -3.327329654511E+00  2.473293839228E+00
 O  -3.807385301254E+00  2.719596917700E-02  2.453698488552E+00
 O  -5.667154183373E+00  3.285831477270E+00  2.422237241288E+00
 O  -1.872374615444E+00 -3.342440877376E+00  2.542338209931E+00
 O   1.892773971815E+00 -1.102313441497E+00  8.709798875690E-01
 O   1.361532864600E-02  2.163661251595E+00  9.033805680060E-01
 O   3.736792174164E+00 -4.314559460395E+00  8.897847906900E-01
 O   5.624599299046E+00 -1.106067710934E+00  8.994607065930E-01
 O   3.728806005351E+00  2.170766768548E+00  8.817820499320E-01
 O   7.528662114825E+00 -4.324319885717E+00  8.687173296470E-01
 O  -1.874418534531E+00 -1.104963274229E+00  9.344788957200E-01
 O  -3.743894059094E+00  2.185753545266E+00  9.023524338540E-01
 O  -5.046470319000E-03 -4.319156366757E+00  8.725445059570E-01
 CE  1.243026016200E-02 -3.383250734000E-03  6.345324038400E-02
 CE -1.876800374136E+00  3.249482311591E+00  7.292459224900E-02
 CE  1.867832947568E+00 -3.245870806343E+00  5.306076907600E-02
 CE  3.752002225728E+00 -1.430317910700E-02  5.399844447700E-02
 CE  1.871956693112E+00  3.264988543621E+00  7.355567760900E-02
 CE  5.642633876790E+00 -3.250597680587E+00  7.317119670700E-02
 CE -3.761817170842E+00  1.552002042000E-03  8.056923622800E-02
 CE -5.631877086704E+00  3.261337118583E+00  6.622244986400E-02
 CE -1.879447453394E+00 -3.262077356552E+00  7.478476791600E-02
 O  -1.876512174014E+00  1.074812872600E+00 -7.329669540130E-01
 O  -3.753221473721E+00  4.331510511058E+00 -7.512868536070E-01
 O  -1.147419240100E-02 -2.158615250485E+00 -7.539066256100E-01
 O   1.873735704060E+00  1.084716554616E+00 -7.500219235290E-01
 O  -5.703858179000E-03  4.331909038620E+00 -7.393135512140E-01
 O   3.763120463382E+00 -2.169702466820E+00 -7.620247769640E-01
 O  -5.631663396371E+00  1.080237276111E+00 -7.328720121580E-01
 O  -7.511994465675E+00  4.329696735891E+00 -7.515480950110E-01
 O  -3.751111208726E+00 -2.154459769907E+00 -7.436435943080E-01
 O   0.000000000000E+00  0.000000000000E+00 -2.343480358560E+00
 O  -1.877719817896E+00  3.250370705705E+00 -2.343480358560E+00
 O   1.877719817902E+00 -3.250370705699E+00 -2.343480358560E+00
 O   3.756399339492E+00  5.510079100000E-04 -2.343480358560E+00
 O   1.878679521592E+00  3.250921713621E+00 -2.343480358560E+00
 O   5.634119157400E+00 -3.249819697786E+00 -2.343480358560E+00
 O  -3.756399339492E+00 -5.510079200000E-04 -2.343480358560E+00
 O  -5.634119157400E+00  3.249819697786E+00 -2.343480358560E+00
 O  -1.878679521598E+00 -3.250921713617E+00 -2.343480358560E+00
 CE -1.878039719129E+00  1.083273232594E+00 -3.124640478080E+00
 CE -3.755759537020E+00  4.333643938305E+00 -3.124640478080E+00
 CE -3.199012319999E-04 -2.167097473107E+00 -3.124640478080E+00
 CE  1.878359620361E+00  1.083824240512E+00 -3.124640478080E+00
 CE  6.398024660001E-04  4.334194946214E+00 -3.124640478080E+00
 CE  3.756079438261E+00 -2.166546465191E+00 -3.124640478080E+00
 CE -5.634439058660E+00  1.082722224667E+00 -3.124640478080E+00
 CE -7.512158876518E+00  4.333092930391E+00 -3.124640478080E+00
 CE -3.756719240727E+00 -2.167648481026E+00 -3.124640478080E+00
 O   1.878039719129E+00 -1.083273232594E+00 -3.905800597599E+00
 O   3.199012319999E-04  2.167097473107E+00 -3.905800597599E+00
 O   3.755759537020E+00 -4.333643938305E+00 -3.905800597599E+00
 O   5.634439058660E+00 -1.082722224667E+00 -3.905800597599E+00
 O   3.756719240730E+00  2.167648481026E+00 -3.905800597599E+00
 O   7.512158876518E+00 -4.333092930391E+00 -3.905800597599E+00
 O  -1.878359620361E+00 -1.083824240512E+00 -3.905800597599E+00
 O  -3.756079438263E+00  2.166546465191E+00 -3.905800597599E+00
 O  -6.398024680000E-04 -4.334194946215E+00 -3.905800597599E+00
 O   1.086877511100E-01 -4.037975274140E+00  5.975998451292E+00
 H   5.559084115973E+00  6.669337956773E+00  6.020279668595E+00
 H  -2.082234687740E-01 -4.489539615941E+00  6.793409312882E+00
 H  -2.160938729237E+00 -5.280977078956E+00  5.175981740190E+00
 O   1.505125440238E+00  9.039414032690E-01  6.859324578270E+00
 H   1.865493876287E+00  1.074203027085E+00  5.943754402993E+00
 H   2.099429689450E+00  1.277338292276E+00  7.531205872671E+00
 O   5.212417911427E+00 -1.051111703536E+00  5.873563349773E+00
 H   5.338846100390E+00 -2.425047087740E-01  6.414746572268E+00
 H   4.260454907339E+00 -1.286272747065E+00  5.952165176086E+00
 O  -5.820610687400E+00  1.665703357465E+00  6.777984286424E+00
 H  -5.950934768321E+00  1.769235384968E+00  5.806748030549E+00
 H   5.164925077801E+00  2.469294644757E+00  7.274379159277E+00
 H   1.515483007383E+00  1.156995611862E+01  6.453367380488E+00
 O   2.338300583294E+00  1.153490704200E+01  5.894307408658E+00
 H   2.626486016753E+00  1.058892603038E+01  5.923437356129E+00
 H  -2.372978650806E+00 -1.177823644605E+00  6.945740525446E+00
 O  -2.579446562204E+00 -9.357516654690E-01  6.028531167448E+00
 H  -3.275780905053E+00 -1.547504804117E+00  5.676429461331E+00
 O  -4.727489639410E-01  2.416967171978E+00  5.931527786688E+00
 H  -1.415007800929E+00  2.207609887812E+00  6.110471995138E+00
 H   1.102688928280E-01  1.861242236210E+00  6.512222789305E+00
 H  -2.051627311604E+00  5.238179236498E+00  6.828973021966E+00
 O  -2.477300770040E+00  5.575194334185E+00  6.023252769693E+00
 H  -3.247133305921E+00  4.996805467083E+00  5.819637303710E+00
 O   3.936606007100E+00  4.131259015209E+00  4.344842555804E+00
 O   2.177862975593E+00  5.265784392116E+00  5.610056813676E+00
 H   1.820886693427E+00  5.726422354683E+00  6.380714868398E+00
 H   7.536761453062E+00  8.851429998264E+00  6.616697505794E+00
 O   7.974739010564E+00  8.290293812160E+00  5.937943227453E+00
 H   8.066758073600E+00  7.352847565162E+00  6.218230726863E+00
 H   5.590771068553E+00  1.389648730885E+01  5.213712369997E+00
 H   9.888172011226E+00  1.400342840069E+01  8.777931627166E+00
 O   1.070465558977E+01  1.385526818544E+01  8.264297878071E+00
 H   1.139504266251E+01  1.380847760671E+01  8.955732369970E+00
