  115
Ceria bulk                              
 O  -1.864833423907E+00  1.011670004878E+00  3.893922319994E+00
 O  -3.861242297012E+00  4.278172182420E+00  4.033547674395E+00
 O  -1.243253862490E-01 -2.165996477167E+00  4.039150816204E+00
 O   1.904175831098E+00  1.087016451276E+00  4.181787763962E+00
 O   8.681028719200E-02  4.383750563233E+00  4.019226658577E+00
 O   3.719340404201E+00 -2.213859569176E+00  3.984772823828E+00
 O  -5.754519884566E+00  1.113529555459E+00  4.102753081560E+00
 O  -3.779515173231E+00 -2.236652552556E+00  4.039742428685E+00
 CE  1.858489621875E+00 -1.114891031302E+00  3.293596586297E+00
 CE -1.815114089400E-02  2.158780487319E+00  3.278986805396E+00
 CE  3.747700369697E+00 -4.343596317576E+00  3.272546342238E+00
 CE  5.607176049238E+00 -1.102936834753E+00  3.289815282617E+00
 CE  3.733614356979E+00  2.104807683052E+00  3.160366625128E+00
 CE  7.461667096591E+00 -4.309612544643E+00  3.156428855094E+00
 CE -1.902315132243E+00 -1.099914345819E+00  3.200979878436E+00
 CE -3.783759437971E+00  2.144000716328E+00  3.286968745407E+00
 CE  9.618580101000E-03 -4.366765528144E+00  3.233004378871E+00
 O   6.461153762500E-02 -8.701856706000E-03  2.439913749256E+00
 O  -1.881461354447E+00  3.264244684124E+00  2.495115439842E+00
 O   1.825910830106E+00 -3.271059635672E+00  2.470456137153E+00
 O   3.724480062076E+00 -1.930368873000E-02  2.442803336813E+00
 O   1.915985438407E+00  3.234786777834E+00  2.426326955725E+00
 O   5.621121236647E+00 -3.235083492939E+00  2.410901686194E+00
 O  -3.851793941675E+00 -1.923619035200E-02  2.471924126289E+00
 O  -5.735788222105E+00  3.249625786830E+00  2.431961138262E+00
 O  -1.901465645007E+00 -3.363238289230E+00  2.420766424382E+00
 O   1.880453977978E+00 -1.113225480893E+00  8.729439252440E-01
 O  -1.219139114500E-02  2.171669485935E+00  9.016407040280E-01
 O   3.736413395928E+00 -4.339024269156E+00  8.843356744870E-01
 O   5.621229970423E+00 -1.078439170311E+00  8.676480729290E-01
 O   3.754532055229E+00  2.137235887772E+00  8.515683350570E-01
 O   7.491325420846E+00 -4.337200525106E+00  8.547429205200E-01
 O  -1.897684175790E+00 -1.099046914092E+00  9.112011547530E-01
 O  -3.774127129014E+00  2.166082093517E+00  9.182350578990E-01
 O   1.217113740000E-03 -4.350606566929E+00  8.667538335170E-01
 CE -5.749630240000E-04 -6.848215893000E-03  5.012208765900E-02
 CE -1.888568994195E+00  3.245027044472E+00  5.651444715400E-02
 CE  1.867486215744E+00 -3.261104374399E+00  4.144278546600E-02
 CE  3.752629795313E+00 -1.946560898100E-02  2.967065157800E-02
 CE  1.867906619287E+00  3.242697642235E+00  2.488319344800E-02
 CE  5.620002108063E+00 -3.244887292000E+00  2.605215547200E-02
 CE -3.786095681987E+00 -8.732762375000E-03  5.063606850400E-02
 CE -5.646643716620E+00  3.236621460493E+00  3.319457256700E-02
 CE -1.893011587718E+00 -3.271226690248E+00  2.642714791500E-02
 O  -1.892394208821E+00  1.074166709957E+00 -7.315165589350E-01
 O  -3.762042072149E+00  4.316555081211E+00 -7.505672936120E-01
 O  -2.170076959700E-02 -2.170847183070E+00 -7.453085649670E-01
 O   1.863152480837E+00  1.078024313295E+00 -7.493656829090E-01
 O  -9.786075075000E-03  4.327302471422E+00 -7.510744989520E-01
 O   3.751924114157E+00 -2.175762624294E+00 -7.632403631200E-01
 O  -5.641759767698E+00  1.072214688143E+00 -7.508314360970E-01
 O  -7.532010364056E+00  4.319027967173E+00 -7.449063319980E-01
 O  -3.769952271931E+00 -2.173211528406E+00 -7.439835870190E-01
 O   0.000000000000E+00  0.000000000000E+00 -2.343480358560E+00
 O  -1.877180543967E+00  3.251139308362E+00 -2.343480358560E+00
 O   1.877180543973E+00 -3.251139308356E+00 -2.343480358560E+00
 O   3.764803692852E+00  6.024334065000E-03 -2.343480358560E+00
 O   1.887623148880E+00  3.257163642432E+00 -2.343480358560E+00
 O   5.641984236830E+00 -3.245114974288E+00 -2.343480358560E+00
 O  -3.764803692852E+00 -6.024334075000E-03 -2.343480358560E+00
 O  -5.641984236830E+00  3.245114974288E+00 -2.343480358560E+00
 O  -1.887623148886E+00 -3.257163642428E+00 -2.343480358560E+00
 CE -1.880661412273E+00  1.081704991428E+00 -3.124640478080E+00
 CE -3.757841956235E+00  4.332844299795E+00 -3.124640478080E+00
 CE -3.480868303000E-03 -2.169434316928E+00 -3.124640478080E+00
 CE  1.884142280579E+00  1.087729325500E+00 -3.124640478080E+00
 CE  6.961736610000E-03  4.338868633861E+00 -3.124640478080E+00
 CE  3.761322824550E+00 -2.163409982859E+00 -3.124640478080E+00
 CE -5.645465105166E+00  1.075680657345E+00 -3.124640478080E+00
 CE -7.522645649093E+00  4.326819965728E+00 -3.124640478080E+00
 CE -3.768284561158E+00 -2.175458651003E+00 -3.124640478080E+00
 O   1.880661412273E+00 -1.081704991428E+00 -3.905800597599E+00
 O   3.480868303000E-03  2.169434316928E+00 -3.905800597599E+00
 O   3.757841956235E+00 -4.332844299795E+00 -3.905800597599E+00
 O   5.645465105166E+00 -1.075680657345E+00 -3.905800597599E+00
 O   3.768284561161E+00  2.175458651003E+00 -3.905800597599E+00
 O   7.522645649093E+00 -4.326819965728E+00 -3.905800597599E+00
 O  -1.884142280579E+00 -1.087729325500E+00 -3.905800597599E+00
 O  -3.761322824552E+00  2.163409982859E+00 -3.905800597599E+00
 O  -6.961736612000E-03 -4.338868633862E+00 -3.905800597599E+00
 O   6.013811749400E-02 -3.695262534441E+00  6.029352430022E+00
 H   5.355023900309E+00  6.849399526205E+00  5.509556816718E+00
 H  -5.272687384660E-01 -3.912663453070E+00  6.769476387325E+00
 H  -2.356486584551E+00 -5.454733936540E+00  5.178518909514E+00
 O   1.910389795069E+00  1.603781541436E+00  6.737674188115E+00
 H   1.988951758937E+00  1.288766863296E+00  5.773507420813E+00
 H   2.303214208727E+00  9.503821252540E-01  7.336685251506E+00
 O   5.357139815091E+00 -1.300360057802E+00  5.883965869542E+00
 H   5.265252107756E+00 -4.838413425520E-01  6.426866850242E+00
 H   4.502558580527E+00 -1.774164269523E+00  5.898701734010E+00
 O  -5.961200396143E+00  1.312042197633E+00  6.687424856731E+00
 H  -5.978309524331E+00  1.325817251286E+00  5.675072730598E+00
 H   4.606831679079E+00  1.869294226125E+00  7.035069214125E+00
 H   1.478409565877E+00  1.155878635943E+01  6.493290038519E+00
 O   2.279342905007E+00  1.147044765768E+01  5.924382515366E+00
 H   2.498790258525E+00  1.050161389226E+01  5.946918990696E+00
 H  -2.855571760719E+00 -1.262193791241E+00  7.034775857293E+00
 O  -2.771021035684E+00 -1.017133627005E+00  6.099636454711E+00
 H  -3.392444413442E+00 -1.605842384516E+00  5.580017367850E+00
 O  -6.040420964980E-01  2.428536494357E+00  5.937708713959E+00
 H  -1.485103727485E+00  2.019680358638E+00  6.085766371010E+00
 H   5.689896463500E-02  2.041287470062E+00  6.551628633523E+00
 H  -1.409758565881E+00  4.277670111551E+00  6.064327960983E+00
 O  -2.018983266430E+00  5.009026358360E+00  5.827987003054E+00
 H  -2.916118605196E+00  4.618107378335E+00  5.785073935394E+00
 O   3.764101476894E+00  4.273960833564E+00  4.300369041210E+00
 O   1.864507922686E+00  4.392215661434E+00  6.216950005298E+00
 H   1.917703607508E+00  3.523404805515E+00  6.670045026291E+00
 H   6.829148597736E+00  8.887404975110E+00  6.400088164828E+00
 O   7.456565114111E+00  8.257707269857E+00  6.008176617344E+00
 H   7.042858047239E+00  7.368529424914E+00  6.163500000000E+00
 H   1.139257158714E+01  4.390041192484E+00  5.020000000000E+00
 H   1.117856553429E+01  6.551002982242E+00  6.591200000000E+00
 O   1.201938164439E+01  6.589836161524E+00  7.105000000000E+00
 H   1.207259587756E+01  5.720967476014E+00  7.558000000000E+00
