  113
CERIA BULK                              
 O  -1.862554390541E+00  1.087915908734E+00  4.079553133397E+00
 O  -3.774046875327E+00  4.322709191167E+00  3.798690644243E+00
 O  -8.966146132600E-02 -2.133149309787E+00  4.355630749755E+00
 O   1.861555108238E+00  1.149455431824E+00  4.050072095994E+00
 O  -3.952279792900E-02  4.203271613167E+00  4.103804417828E+00
 O  -5.693048718688E+00  1.104457382411E+00  4.013675494297E+00
 O  -7.408490696274E+00  4.236940199540E+00  4.091155378119E+00
 O  -3.727141797546E+00 -2.021961675642E+00  4.081579076309E+00
 CE  1.871485356501E+00 -1.012107821591E+00  3.250384782031E+00
 CE  3.688342231000E-03  2.179150946475E+00  3.142644179933E+00
 CE  3.800163000331E+00 -4.446679671714E+00  3.277032399957E+00
 CE  5.669946672045E+00 -1.075015032798E+00  3.226950757994E+00
 CE  3.775847052098E+00  2.192834445896E+00  3.147628680272E+00
 CE  7.548862575091E+00 -4.348510058949E+00  3.343497670677E+00
 CE -1.952612286435E+00 -1.052848887276E+00  3.206954953072E+00
 CE -3.791563431586E+00  2.183902789314E+00  3.238870516469E+00
 CE  1.712480726900E-02 -4.416662181424E+00  3.265159822133E+00
 O  -2.145704921000E-03 -6.068046324100E-02  2.430025113815E+00
 O  -1.855930890753E+00  3.211570761374E+00  2.373749846623E+00
 O   1.846829179189E+00 -3.140554710467E+00  2.517258640375E+00
 O   3.729297700453E+00 -1.853943958200E-02  2.412473331926E+00
 O   1.896951704754E+00  3.266194096293E+00  2.376247755090E+00
 O   5.635259012236E+00 -3.275370957884E+00  2.475468261777E+00
 O  -3.768194531590E+00  5.165656832000E-02  2.393027527217E+00
 O  -5.669815880187E+00  3.244178749811E+00  2.357546482442E+00
 O  -1.786025895247E+00 -3.228849872001E+00  2.487659076270E+00
 O   1.878296228406E+00 -1.069234914715E+00  8.428117598330E-01
 O   1.276819704100E-02  2.149784994505E+00  8.355647079190E-01
 O   3.743024692505E+00 -4.362682812343E+00  8.875133204800E-01
 O   5.658873221257E+00 -1.091733709606E+00  8.502311496330E-01
 O   3.767054703947E+00  2.162390653149E+00  8.247770092300E-01
 O   7.561512963395E+00 -4.329639477648E+00  8.635092227000E-01
 O  -1.904592741029E+00 -1.083792335686E+00  8.630749029330E-01
 O  -3.770398174288E+00  2.191290918892E+00  8.288501024940E-01
 O   3.031954792700E-02 -4.362143257684E+00  8.797943479330E-01
 CE  1.584763593000E-03 -9.249992664000E-03  1.598283789500E-02
 CE -1.894276832833E+00  3.274065251443E+00  2.934826673200E-02
 CE  1.888393336943E+00 -3.263521295843E+00  7.026491920600E-02
 CE  3.764093781790E+00 -9.449500562000E-03  2.129546886700E-02
 CE  1.889728077925E+00  3.285586488208E+00  3.551845890400E-02
 CE  5.662683663951E+00 -3.273372574094E+00  7.306131631300E-02
 CE -3.773680713378E+00  8.963182089000E-03  1.744313050100E-02
 CE -5.644178126038E+00  3.278006509314E+00  2.168232329200E-02
 CE -1.881545311086E+00 -3.268033699932E+00  6.557990475300E-02
 O  -1.882215613257E+00  1.089002598166E+00 -7.829894546680E-01
 O  -3.767096978331E+00  4.374803415397E+00 -7.810091640950E-01
 O  -1.352579443000E-03 -2.182425287282E+00 -7.639540506620E-01
 O   1.883383126496E+00  1.089781439561E+00 -7.885969442670E-01
 O  -4.146763326000E-03  4.368030186400E+00 -7.547095893620E-01
 O   3.769849485152E+00 -2.188790926693E+00 -7.613591481480E-01
 O  -5.653833750538E+00  1.091211695185E+00 -7.862079338600E-01
 O  -7.533018492373E+00  4.375719652423E+00 -7.675610256320E-01
 O  -3.765872904769E+00 -2.173726282783E+00 -7.734465723600E-01
 O   0.000000000000E+00  0.000000000000E+00 -2.343480358560E+00
 O  -1.886615972275E+00  3.270711284957E+00 -2.343480358560E+00
 O   1.886615972279E+00 -3.270711284952E+00 -2.343480358560E+00
 O   3.768865047981E+00 -2.493819304000E-03 -2.343480358560E+00
 O   1.882249075699E+00  3.268217465653E+00 -2.343480358560E+00
 O   5.655481020272E+00 -3.273205104256E+00 -2.343480358560E+00
 O  -3.768865047981E+00  2.493819294000E-03 -2.343480358560E+00
 O  -5.655481020272E+00  3.273205104256E+00 -2.343480358560E+00
 O  -1.882249075705E+00 -3.268217465649E+00 -2.343480358560E+00
 CE -1.885160340087E+00  1.091068368083E+00 -3.124640478080E+00
 CE -3.771776312357E+00  4.361779653046E+00 -3.124640478080E+00
 CE  1.455632193000E-03 -2.179642916867E+00 -3.124640478080E+00
 CE  1.883704707893E+00  1.088574548784E+00 -3.124640478080E+00
 CE -2.911264384000E-03  4.359285833739E+00 -3.124640478080E+00
 CE  3.770320680173E+00 -2.182136736173E+00 -3.124640478080E+00
 CE -5.654025388107E+00  1.093562187374E+00 -3.124640478080E+00
 CE -7.540641360339E+00  4.364273472354E+00 -3.124640478080E+00
 CE -3.767409415789E+00 -2.177149097567E+00 -3.124640478080E+00
 O   1.885160340087E+00 -1.091068368083E+00 -3.905800597599E+00
 O  -1.455632193000E-03  2.179642916867E+00 -3.905800597599E+00
 O   3.771776312357E+00 -4.361779653046E+00 -3.905800597599E+00
 O   5.654025388107E+00 -1.093562187374E+00 -3.905800597599E+00
 O   3.767409415793E+00  2.177149097568E+00 -3.905800597599E+00
 O   7.540641360339E+00 -4.364273472354E+00 -3.905800597599E+00
 O  -1.883704707893E+00 -1.088574548784E+00 -3.905800597599E+00
 O  -3.770320680175E+00  2.182136736173E+00 -3.905800597599E+00
 O   2.911264383000E-03 -4.359285833739E+00 -3.905800597599E+00
 O   5.873541105500E-01 -4.634103538043E+00  5.916937388062E+00
 H   5.889848229117E+00  7.718342126337E+00  5.272444122670E+00
 H   9.364352352640E-01 -5.576572403561E+00  5.944653627183E+00
 H  -1.176213375030E-01 -4.565170118117E+00  6.579783916309E+00
 O   2.324768275578E+00  1.576546044513E+00  6.578846919208E+00
 H   2.106521060031E+00  1.459852120782E+00  5.602162268243E+00
 H   1.660267370070E+00  2.213611330003E+00  6.909022459913E+00
 O  -6.109886324133E+00  1.027723977381E+00  6.631345377387E+00
 H  -6.081599505875E+00  9.085175867460E-01  5.639695452788E+00
 H   4.265115074478E+00  1.231044679560E+00  6.853918166810E+00
 H   3.040902854397E+00  4.569099353099E+00  5.640740884431E+00
 O   7.976237151962E+00 -4.640418275783E+00  5.941312892098E+00
 H   7.337314926487E+00 -5.151643781103E+00  6.473925146006E+00
 H   2.673453188129E+00 -4.436333283783E+00  6.195329931722E+00
 O   3.589048148781E+00 -4.421194654866E+00  5.862331151928E+00
 H   4.172457955842E+00 -4.947913236752E+00  6.445188531635E+00
 H  -4.606199137800E+00  1.921720573199E+01  6.825820163271E+00
 O  -3.703091971373E+00  1.889421083801E+01  6.643132515462E+00
 H  -3.777063967935E+00  1.825425910392E+01  5.900415871798E+00
 O  -1.848068953083E+00  1.424853851611E+00  6.655737432453E+00
 H  -1.805505083884E+00  1.246345206756E+00  5.659935502285E+00
 H  -2.319150863588E+00  6.247151526710E-01  6.983822113256E+00
 H  -3.774651400800E-02  3.749739442684E+00  5.681273225825E+00
 O   8.375610443000E-03  3.527475181110E+00  6.663379784140E+00
 H  -5.950173197430E-01  2.765086363694E+00  6.829882149142E+00
 O   1.511300994975E+00  1.246816384931E+01  5.960293394859E+00
 H   2.360757855795E+00  1.214756093273E+01  6.373377705211E+00
 H   7.771066718960E-01  1.190776443117E+01  6.343091095058E+00
 O  -3.673452623147E+00  8.665962138879E+00  5.927193195811E+00
 H  -3.731669535459E+00  9.535972999814E+00  6.382846328478E+00
 H  -2.706642278270E+00  8.428599982031E+00  5.955430389802E+00
 O  -1.153223246059E+00  8.278612688232E+00  5.167427113511E+00
 O  -1.940572130674E+00  7.614981010224E+00  4.101778210553E+00
  113
CERIA BULK                              
 O  -1.862554390541E+00  1.087915908734E+00  4.079553133397E+00
 O  -3.774046875327E+00  4.322709191167E+00  3.798690644243E+00
 O  -8.966146132561E-02 -2.133149309787E+00  4.355630749755E+00
 O   1.861555108238E+00  1.149455431824E+00  4.050072095994E+00
 O  -3.952279792913E-02  4.203271613167E+00  4.103804417828E+00
 O  -5.693048718688E+00  1.104457382411E+00  4.013675494297E+00
 O  -7.408490696274E+00  4.236940199540E+00  4.091155378119E+00
 O  -3.727141797546E+00 -2.021961675642E+00  4.081579076309E+00
 CE  1.871485356501E+00 -1.012107821591E+00  3.250384782031E+00
 CE  3.688342231390E-03  2.179150946475E+00  3.142644179933E+00
 CE  3.800163000331E+00 -4.446679671714E+00  3.277032399957E+00
 CE  5.669946672045E+00 -1.075015032798E+00  3.226950757994E+00
 CE  3.775847052098E+00  2.192834445896E+00  3.147628680272E+00
 CE  7.548862575091E+00 -4.348510058949E+00  3.343497670677E+00
 CE -1.952612286435E+00 -1.052848887276E+00  3.206954953072E+00
 CE -3.791563431586E+00  2.183902789314E+00  3.238870516469E+00
 CE  1.712480726911E-02 -4.416662181424E+00  3.265159822133E+00
 O  -2.145704921468E-03 -6.068046324079E-02  2.430025113815E+00
 O  -1.855930890753E+00  3.211570761374E+00  2.373749846623E+00
 O   1.846829179189E+00 -3.140554710467E+00  2.517258640375E+00
 O   3.729297700453E+00 -1.853943958233E-02  2.412473331926E+00
 O   1.896951704754E+00  3.266194096293E+00  2.376247755090E+00
 O   5.635259012236E+00 -3.275370957884E+00  2.475468261777E+00
 O  -3.768194531590E+00  5.165656831962E-02  2.393027527217E+00
 O  -5.669815880187E+00  3.244178749811E+00  2.357546482442E+00
 O  -1.786025895247E+00 -3.228849872001E+00  2.487659076270E+00
 O   1.878296228406E+00 -1.069234914715E+00  8.428117598333E-01
 O   1.276819704119E-02  2.149784994505E+00  8.355647079194E-01
 O   3.743024692505E+00 -4.362682812343E+00  8.875133204802E-01
 O   5.658873221257E+00 -1.091733709606E+00  8.502311496332E-01
 O   3.767054703947E+00  2.162390653149E+00  8.247770092299E-01
 O   7.561512963395E+00 -4.329639477648E+00  8.635092227002E-01
 O  -1.904592741029E+00 -1.083792335686E+00  8.630749029327E-01
 O  -3.770398174288E+00  2.191290918892E+00  8.288501024937E-01
 O   3.031954792692E-02 -4.362143257684E+00  8.797943479333E-01
 CE  1.584763593320E-03 -9.249992664439E-03  1.598283789492E-02
 CE -1.894276832833E+00  3.274065251443E+00  2.934826673194E-02
 CE  1.888393336943E+00 -3.263521295843E+00  7.026491920642E-02
 CE  3.764093781790E+00 -9.449500562240E-03  2.129546886747E-02
 CE  1.889728077925E+00  3.285586488208E+00  3.551845890448E-02
 CE  5.662683663951E+00 -3.273372574094E+00  7.306131631307E-02
 CE -3.773680713378E+00  8.963182089255E-03  1.744313050133E-02
 CE -5.644178126038E+00  3.278006509314E+00  2.168232329156E-02
 CE -1.881545311086E+00 -3.268033699932E+00  6.557990475299E-02
 O  -1.882215613257E+00  1.089002598166E+00 -7.829894546685E-01
 O  -3.767096978331E+00  4.374803415397E+00 -7.810091640953E-01
 O  -1.352579442653E-03 -2.182425287282E+00 -7.639540506625E-01
 O   1.883383126496E+00  1.089781439561E+00 -7.885969442671E-01
 O  -4.146763326170E-03  4.368030186400E+00 -7.547095893618E-01
 O   3.769849485152E+00 -2.188790926693E+00 -7.613591481476E-01
 O  -5.653833750538E+00  1.091211695185E+00 -7.862079338596E-01
 O  -7.533018492373E+00  4.375719652423E+00 -7.675610256323E-01
 O  -3.765872904769E+00 -2.173726282783E+00 -7.734465723598E-01
 O   0.000000000000E+00  0.000000000000E+00 -2.343480358560E+00
 O  -1.886615972275E+00  3.270711284957E+00 -2.343480358560E+00
 O   1.886615972279E+00 -3.270711284952E+00 -2.343480358560E+00
 O   3.768865047981E+00 -2.493819304224E-03 -2.343480358560E+00
 O   1.882249075699E+00  3.268217465653E+00 -2.343480358560E+00
 O   5.655481020272E+00 -3.273205104256E+00 -2.343480358560E+00
 O  -3.768865047981E+00  2.493819294226E-03 -2.343480358560E+00
 O  -5.655481020272E+00  3.273205104256E+00 -2.343480358560E+00
 O  -1.882249075705E+00 -3.268217465649E+00 -2.343480358560E+00
 CE -1.885160340087E+00  1.091068368083E+00 -3.124640478080E+00
 CE -3.771776312357E+00  4.361779653046E+00 -3.124640478080E+00
 CE  1.455632192805E-03 -2.179642916867E+00 -3.124640478080E+00
 CE  1.883704707893E+00  1.088574548784E+00 -3.124640478080E+00
 CE -2.911264383610E-03  4.359285833739E+00 -3.124640478080E+00
 CE  3.770320680173E+00 -2.182136736173E+00 -3.124640478080E+00
 CE -5.654025388107E+00  1.093562187374E+00 -3.124640478080E+00
 CE -7.540641360339E+00  4.364273472354E+00 -3.124640478080E+00
 CE -3.767409415789E+00 -2.177149097567E+00 -3.124640478080E+00
 O   1.885160340087E+00 -1.091068368083E+00 -3.905800597599E+00
 O  -1.455632192805E-03  2.179642916867E+00 -3.905800597599E+00
 O   3.771776312357E+00 -4.361779653046E+00 -3.905800597599E+00
 O   5.654025388107E+00 -1.093562187374E+00 -3.905800597599E+00
 O   3.767409415793E+00  2.177149097568E+00 -3.905800597599E+00
 O   7.540641360339E+00 -4.364273472354E+00 -3.905800597599E+00
 O  -1.883704707893E+00 -1.088574548784E+00 -3.905800597599E+00
 O  -3.770320680175E+00  2.182136736173E+00 -3.905800597599E+00
 O   2.911264382609E-03 -4.359285833739E+00 -3.905800597599E+00
 O   5.873541105496E-01 -4.634103538043E+00  5.916937388062E+00
 H   5.889848229117E+00  7.718342126337E+00  5.272444122670E+00
 H   9.364352352640E-01 -5.576572403561E+00  5.944653627183E+00
 H  -1.176213375031E-01 -4.565170118117E+00  6.579783916309E+00
 O   2.324768275578E+00  1.576546044513E+00  6.578846919208E+00
 H   2.106521060031E+00  1.459852120782E+00  5.602162268243E+00
 H   1.660267370070E+00  2.213611330003E+00  6.909022459913E+00
 O  -6.109886324133E+00  1.027723977381E+00  6.631345377387E+00
 H  -6.081599505875E+00  9.085175867461E-01  5.639695452788E+00
 H   4.265115074478E+00  1.231044679560E+00  6.853918166810E+00
 H   3.040902854397E+00  4.569099353099E+00  5.640740884431E+00
 O   7.976237151962E+00 -4.640418275783E+00  5.941312892098E+00
 H   7.337314926487E+00 -5.151643781103E+00  6.473925146006E+00
 H   2.673453188129E+00 -4.436333283783E+00  6.195329931722E+00
 O   3.589048148781E+00 -4.421194654867E+00  5.862331151927E+00
 H   4.172457955842E+00 -4.947913236752E+00  6.445188531635E+00
 H  -4.606199137800E+00  1.921720573199E+01  6.825820163271E+00
 O  -3.703091971373E+00  1.889421083801E+01  6.643132515462E+00
 H  -3.777063967935E+00  1.825425910392E+01  5.900415871798E+00
 O  -1.848068953083E+00  1.424853851611E+00  6.655737432453E+00
 H  -1.805505083884E+00  1.246345206756E+00  5.659935502285E+00
 H  -2.319150863588E+00  6.247151526707E-01  6.983822113255E+00
 H  -3.774651400803E-02  3.749739442684E+00  5.681273225825E+00
 O   8.375610442616E-03  3.527475181110E+00  6.663379784140E+00
 H  -5.950173197433E-01  2.765086363694E+00  6.829882149142E+00
 O   1.511300994975E+00  1.246816384931E+01  5.960293394859E+00
 H   2.360757855795E+00  1.214756093273E+01  6.373377705211E+00
 H   7.771066718961E-01  1.190776443117E+01  6.343091095057E+00
 O  -3.673452623147E+00  8.665962138880E+00  5.927193195811E+00
 H  -3.731669535459E+00  9.535972999814E+00  6.382846328477E+00
 H  -2.706642278270E+00  8.428599982031E+00  5.955430389802E+00
 O  -1.153223246059E+00  8.278612688232E+00  5.167427113511E+00
 O  -1.940572130674E+00  7.614981010224E+00  4.101778210553E+00
  113
CERIA BULK                               E -1.7735476017165E+04 DE-4.8E-06( 88)
 O  -1.862550202724E+00  1.087927507135E+00  4.079554942627E+00
 O  -3.774019198578E+00  4.322727602533E+00  3.798681528697E+00
 O  -8.963271381836E-02 -2.133142951346E+00  4.355628103989E+00
 O   1.861548429464E+00  1.149434533437E+00  4.050059421711E+00
 O  -3.961466115753E-02  4.203272399461E+00  4.103799329704E+00
 O  -5.693054747615E+00  1.104457401272E+00  4.013671284916E+00
 O  -7.408437781594E+00  4.236903918212E+00  4.091164290193E+00
 O  -3.727146042792E+00 -2.021918790206E+00  4.081578192402E+00
 CE  1.871459208755E+00 -1.012061403451E+00  3.250380499642E+00
 CE  3.751543079138E-03  2.179155303955E+00  3.142645823112E+00
 CE  3.800218340686E+00 -4.446676966265E+00  3.277057521414E+00
 CE  5.670005157141E+00 -1.075024583876E+00  3.226961285483E+00
 CE  3.775819496439E+00  2.192898388343E+00  3.147636228099E+00
 CE  7.548947965841E+00 -4.348516583328E+00  3.343474207231E+00
 CE -1.952636827710E+00 -1.052913718015E+00  3.206958243517E+00
 CE -3.791606139974E+00  2.183851187394E+00  3.238880592047E+00
 CE  1.698410288457E-02 -4.416655227798E+00  3.265165808578E+00
 O  -2.143835442401E-03 -6.068219880400E-02  2.430025988155E+00
 O  -1.855941852044E+00  3.211610492528E+00  2.373783777145E+00
 O   1.846872217414E+00 -3.140566995847E+00  2.517272832235E+00
 O   3.729295364827E+00 -1.854912767936E-02  2.412481575155E+00
 O   1.896935856073E+00  3.266146536683E+00  2.376227741282E+00
 O   5.635151494585E+00 -3.275360814496E+00  2.475471109222E+00
 O  -3.768197386870E+00  5.166935641563E-02  2.393032985214E+00
 O  -5.669804021117E+00  3.244167044750E+00  2.357546049546E+00
 O  -1.785971355192E+00 -3.228824267997E+00  2.487629831345E+00
 O   1.878304999442E+00 -1.069236693393E+00  8.428240285275E-01
 O   1.275761488144E-02  2.149789109586E+00  8.355696357830E-01
 O   3.743014112373E+00 -4.362683565353E+00  8.875606567858E-01
 O   5.658860880243E+00 -1.091729677139E+00  8.502324317556E-01
 O   3.767059394389E+00  2.162379104570E+00  8.247782487379E-01
 O   7.561502956752E+00 -4.329643343929E+00  8.634532966730E-01
 O  -1.904590343773E+00 -1.083779592119E+00  8.630769845709E-01
 O  -3.770391568119E+00  2.191303346456E+00  8.288598566045E-01
 O   3.034867980881E-02 -4.362150077906E+00  8.797981845041E-01
 CE  1.573812897413E-03 -9.255762206091E-03  1.598798325285E-02
 CE -1.894263915269E+00  3.274042034848E+00  2.932858429306E-02
 CE  1.888358243269E+00 -3.263497936199E+00  7.023734656337E-02
 CE  3.764101137464E+00 -9.431730829394E-03  2.129174105855E-02
 CE  1.889741532128E+00  3.285615959861E+00  3.555593870969E-02
 CE  5.662744838058E+00 -3.273369973089E+00  7.307005060098E-02
 CE -3.773679903678E+00  8.944188553995E-03  1.745239983969E-02
 CE -5.644204520176E+00  3.278005797482E+00  2.168213975836E-02
 CE -1.881576066736E+00 -3.268053830753E+00  6.562592329503E-02
 O  -1.882214958007E+00  1.089007999500E+00 -7.829847477739E-01
 O  -3.767092455999E+00  4.374809897377E+00 -7.809973040073E-01
 O  -1.343865491715E-03 -2.182426706276E+00 -7.639449835989E-01
 O   1.883382897879E+00  1.089779159996E+00 -7.885949909398E-01
 O  -4.156863810610E-03  4.368029040616E+00 -7.547068668124E-01
 O   3.769846838785E+00 -2.188795537011E+00 -7.613475439903E-01
 O  -5.653834386858E+00  1.091212668779E+00 -7.862029041363E-01
 O  -7.533014950823E+00  4.375714664080E+00 -7.675643574349E-01
 O  -3.765882073997E+00 -2.173722663357E+00 -7.734489496057E-01
 O   0.000000000000E+00  0.000000000000E+00 -2.343480358560E+00
 O  -1.886616302984E+00  3.270711911311E+00 -2.343480358560E+00
 O   1.886616302988E+00 -3.270711911306E+00 -2.343480358560E+00
 O   3.768866211094E+00 -2.493529951645E-03 -2.343480358560E+00
 O   1.882249908104E+00  3.268218381359E+00 -2.343480358560E+00
 O   5.655482514094E+00 -3.273205441256E+00 -2.343480358560E+00
 O  -3.768866211094E+00  2.493529941648E-03 -2.343480358560E+00
 O  -5.655482514094E+00  3.273205441256E+00 -2.343480358560E+00
 O  -1.882249908110E+00 -3.268218381355E+00 -2.343480358560E+00
 CE -1.885160838028E+00  1.091068480417E+00 -3.124640478080E+00
 CE -3.771777141006E+00  4.361780391732E+00 -3.124640478080E+00
 CE  1.455464961000E-03 -2.179643430887E+00 -3.124640478080E+00
 CE  1.883705373066E+00  1.088574950470E+00 -3.124640478080E+00
 CE -2.910929920000E-03  4.359286861779E+00 -3.124640478080E+00
 CE  3.770321676054E+00 -2.182136960840E+00 -3.124640478080E+00
 CE -5.654027049161E+00  1.093562010355E+00 -3.124640478080E+00
 CE -7.540643352103E+00  4.364273921688E+00 -3.124640478080E+00
 CE -3.767410746134E+00 -2.177149900939E+00 -3.124640478080E+00
 O   1.885160838028E+00 -1.091068480417E+00 -3.905800597599E+00
 O  -1.455464961000E-03  2.179643430887E+00 -3.905800597599E+00
 O   3.771777141006E+00 -4.361780391732E+00 -3.905800597599E+00
 O   5.654027049161E+00 -1.093562010355E+00 -3.905800597599E+00
 O   3.767410746138E+00  2.177149900940E+00 -3.905800597599E+00
 O   7.540643352103E+00 -4.364273921688E+00 -3.905800597599E+00
 O  -1.883705373066E+00 -1.088574950470E+00 -3.905800597599E+00
 O  -3.770321676056E+00  2.182136960840E+00 -3.905800597599E+00
 O   2.910929918999E-03 -4.359286861779E+00 -3.905800597599E+00
 O   5.873726094379E-01 -4.634115397325E+00  5.916902245740E+00
 H   5.889841098999E+00  7.718338293417E+00  5.272438359431E+00
 H   9.364244145337E-01 -5.576554968076E+00  5.944669904338E+00
 H  -1.176395345164E-01 -4.565180545238E+00  6.579795702745E+00
 O   2.324781508562E+00  1.576547445748E+00  6.578841655551E+00
 H   2.106528047559E+00  1.459851670366E+00  5.602157432731E+00
 H   1.660275395485E+00  2.213610022228E+00  6.909017259450E+00
 O  -6.109897955068E+00  1.027712230239E+00  6.631330571713E+00
 H  -6.081598202383E+00  9.085247402018E-01  5.639704139160E+00
 H   4.265116430049E+00  1.231056751523E+00  6.853930332247E+00
 H   3.040909339640E+00  4.569103576995E+00  5.640703160250E+00
 O   7.976238954784E+00 -4.640406449847E+00  5.941364246024E+00
 H   7.337312359126E+00 -5.151653367996E+00  6.473922070000E+00
 H   2.673495106138E+00 -4.436331501467E+00  6.195329802006E+00
 O   3.588999526226E+00 -4.421197451188E+00  5.862321442777E+00
 H   4.172469399074E+00 -4.947916897030E+00  6.445196088492E+00
 H  -4.606199573325E+00  1.921720830346E+01  6.825812613879E+00
 O  -3.703096235960E+00  1.889422191793E+01  6.643139893082E+00
 H  -3.777062124468E+00  1.825424639635E+01  5.900416181493E+00
 O  -1.848071121306E+00  1.424848273220E+00  6.655724190375E+00
 H  -1.805499413678E+00  1.246350798973E+00  5.659951892560E+00
 H  -2.319144012144E+00  6.247117121847E-01  6.983821466072E+00
 H  -3.771014309821E-02  3.749748843449E+00  5.681279437809E+00
 O   8.359660076183E-03  3.527490576680E+00  6.663368428606E+00
 H  -5.950145242424E-01  2.765075995729E+00  6.829876101368E+00
 O   1.511336774506E+00  1.246816812900E+01  5.960292423123E+00
 H   2.360738254775E+00  1.214756761868E+01  6.373366763416E+00
 H   7.770954735299E-01  1.190776990102E+01  6.343099009588E+00
 O  -3.673449034408E+00  8.665952242211E+00  5.927172159629E+00
 H  -3.731670400762E+00  9.535973810722E+00  6.382852579820E+00
 H  -2.706640215946E+00  8.428612852962E+00  5.955437135995E+00
 O  -1.153201518433E+00  8.278580885040E+00  5.167462150029E+00
 O  -1.940602178672E+00  7.614967048480E+00  4.101765360781E+00
  113
CERIA BULK                               E -1.7735476888401E+04 DE-9.9E-07( 30)
 O  -1.862550202724E+00  1.087927507135E+00  4.079554942627E+00
 O  -3.774019198578E+00  4.322727602533E+00  3.798681528697E+00
 O  -8.963271381836E-02 -2.133142951346E+00  4.355628103989E+00
 O   1.861548429464E+00  1.149434533437E+00  4.050059421711E+00
 O  -3.961466115753E-02  4.203272399461E+00  4.103799329704E+00
 O  -5.693054747615E+00  1.104457401272E+00  4.013671284916E+00
 O  -7.408437781594E+00  4.236903918212E+00  4.091164290193E+00
 O  -3.727146042792E+00 -2.021918790206E+00  4.081578192402E+00
 CE  1.871459208755E+00 -1.012061403451E+00  3.250380499642E+00
 CE  3.751543079138E-03  2.179155303955E+00  3.142645823112E+00
 CE  3.800218340686E+00 -4.446676966265E+00  3.277057521414E+00
 CE  5.670005157141E+00 -1.075024583876E+00  3.226961285483E+00
 CE  3.775819496439E+00  2.192898388343E+00  3.147636228099E+00
 CE  7.548947965841E+00 -4.348516583328E+00  3.343474207231E+00
 CE -1.952636827710E+00 -1.052913718015E+00  3.206958243517E+00
 CE -3.791606139974E+00  2.183851187394E+00  3.238880592047E+00
 CE  1.698410288457E-02 -4.416655227798E+00  3.265165808578E+00
 O  -2.143835442401E-03 -6.068219880400E-02  2.430025988155E+00
 O  -1.855941852044E+00  3.211610492528E+00  2.373783777145E+00
 O   1.846872217414E+00 -3.140566995847E+00  2.517272832235E+00
 O   3.729295364827E+00 -1.854912767936E-02  2.412481575155E+00
 O   1.896935856073E+00  3.266146536683E+00  2.376227741282E+00
 O   5.635151494585E+00 -3.275360814496E+00  2.475471109222E+00
 O  -3.768197386870E+00  5.166935641563E-02  2.393032985214E+00
 O  -5.669804021117E+00  3.244167044750E+00  2.357546049546E+00
 O  -1.785971355192E+00 -3.228824267997E+00  2.487629831345E+00
 O   1.878304999442E+00 -1.069236693393E+00  8.428240285275E-01
 O   1.275761488144E-02  2.149789109586E+00  8.355696357830E-01
 O   3.743014112373E+00 -4.362683565353E+00  8.875606567858E-01
 O   5.658860880243E+00 -1.091729677139E+00  8.502324317556E-01
 O   3.767059394389E+00  2.162379104570E+00  8.247782487379E-01
 O   7.561502956752E+00 -4.329643343929E+00  8.634532966730E-01
 O  -1.904590343773E+00 -1.083779592119E+00  8.630769845709E-01
 O  -3.770391568119E+00  2.191303346456E+00  8.288598566045E-01
 O   3.034867980881E-02 -4.362150077906E+00  8.797981845041E-01
 CE  1.573812897413E-03 -9.255762206091E-03  1.598798325285E-02
 CE -1.894263915269E+00  3.274042034848E+00  2.932858429306E-02
 CE  1.888358243269E+00 -3.263497936199E+00  7.023734656337E-02
 CE  3.764101137464E+00 -9.431730829394E-03  2.129174105855E-02
 CE  1.889741532128E+00  3.285615959861E+00  3.555593870969E-02
 CE  5.662744838058E+00 -3.273369973089E+00  7.307005060098E-02
 CE -3.773679903678E+00  8.944188553995E-03  1.745239983969E-02
 CE -5.644204520176E+00  3.278005797482E+00  2.168213975836E-02
 CE -1.881576066736E+00 -3.268053830753E+00  6.562592329503E-02
 O  -1.882214958007E+00  1.089007999500E+00 -7.829847477739E-01
 O  -3.767092455999E+00  4.374809897377E+00 -7.809973040073E-01
 O  -1.343865491715E-03 -2.182426706276E+00 -7.639449835989E-01
 O   1.883382897879E+00  1.089779159996E+00 -7.885949909398E-01
 O  -4.156863810610E-03  4.368029040616E+00 -7.547068668124E-01
 O   3.769846838785E+00 -2.188795537011E+00 -7.613475439903E-01
 O  -5.653834386858E+00  1.091212668779E+00 -7.862029041363E-01
 O  -7.533014950823E+00  4.375714664080E+00 -7.675643574349E-01
 O  -3.765882073997E+00 -2.173722663357E+00 -7.734489496057E-01
 O   0.000000000000E+00  0.000000000000E+00 -2.343480358560E+00
 O  -1.886616302984E+00  3.270711911311E+00 -2.343480358560E+00
 O   1.886616302988E+00 -3.270711911306E+00 -2.343480358560E+00
 O   3.768866211094E+00 -2.493529951645E-03 -2.343480358560E+00
 O   1.882249908104E+00  3.268218381359E+00 -2.343480358560E+00
 O   5.655482514094E+00 -3.273205441256E+00 -2.343480358560E+00
 O  -3.768866211094E+00  2.493529941648E-03 -2.343480358560E+00
 O  -5.655482514094E+00  3.273205441256E+00 -2.343480358560E+00
 O  -1.882249908110E+00 -3.268218381355E+00 -2.343480358560E+00
 CE -1.885160838028E+00  1.091068480417E+00 -3.124640478080E+00
 CE -3.771777141006E+00  4.361780391732E+00 -3.124640478080E+00
 CE  1.455464961000E-03 -2.179643430887E+00 -3.124640478080E+00
 CE  1.883705373066E+00  1.088574950470E+00 -3.124640478080E+00
 CE -2.910929920000E-03  4.359286861779E+00 -3.124640478080E+00
 CE  3.770321676054E+00 -2.182136960840E+00 -3.124640478080E+00
 CE -5.654027049161E+00  1.093562010355E+00 -3.124640478080E+00
 CE -7.540643352103E+00  4.364273921688E+00 -3.124640478080E+00
 CE -3.767410746134E+00 -2.177149900939E+00 -3.124640478080E+00
 O   1.885160838028E+00 -1.091068480417E+00 -3.905800597599E+00
 O  -1.455464961000E-03  2.179643430887E+00 -3.905800597599E+00
 O   3.771777141006E+00 -4.361780391732E+00 -3.905800597599E+00
 O   5.654027049161E+00 -1.093562010355E+00 -3.905800597599E+00
 O   3.767410746138E+00  2.177149900940E+00 -3.905800597599E+00
 O   7.540643352103E+00 -4.364273921688E+00 -3.905800597599E+00
 O  -1.883705373066E+00 -1.088574950470E+00 -3.905800597599E+00
 O  -3.770321676056E+00  2.182136960840E+00 -3.905800597599E+00
 O   2.910929918999E-03 -4.359286861779E+00 -3.905800597599E+00
 O   5.873726094379E-01 -4.634115397325E+00  5.916902245740E+00
 H   5.889841098999E+00  7.718338293417E+00  5.272438359431E+00
 H   9.364244145337E-01 -5.576554968076E+00  5.944669904338E+00
 H  -1.176395345164E-01 -4.565180545238E+00  6.579795702745E+00
 O   2.324781508562E+00  1.576547445748E+00  6.578841655551E+00
 H   2.106528047559E+00  1.459851670366E+00  5.602157432731E+00
 H   1.660275395485E+00  2.213610022228E+00  6.909017259450E+00
 O  -6.109897955068E+00  1.027712230239E+00  6.631330571713E+00
 H  -6.081598202383E+00  9.085247402018E-01  5.639704139160E+00
 H   4.265116430049E+00  1.231056751523E+00  6.853930332247E+00
 H   3.040909339640E+00  4.569103576995E+00  5.640703160250E+00
 O   7.976238954784E+00 -4.640406449847E+00  5.941364246024E+00
 H   7.337312359126E+00 -5.151653367996E+00  6.473922070000E+00
 H   2.673495106138E+00 -4.436331501467E+00  6.195329802006E+00
 O   3.588999526226E+00 -4.421197451188E+00  5.862321442777E+00
 H   4.172469399074E+00 -4.947916897030E+00  6.445196088492E+00
 H  -4.606199573325E+00  1.921720830346E+01  6.825812613879E+00
 O  -3.703096235960E+00  1.889422191793E+01  6.643139893082E+00
 H  -3.777062124468E+00  1.825424639635E+01  5.900416181493E+00
 O  -1.848071121306E+00  1.424848273220E+00  6.655724190375E+00
 H  -1.805499413678E+00  1.246350798973E+00  5.659951892560E+00
 H  -2.319144012144E+00  6.247117121847E-01  6.983821466072E+00
 H  -3.771014309821E-02  3.749748843449E+00  5.681279437809E+00
 O   8.359660076183E-03  3.527490576680E+00  6.663368428606E+00
 H  -5.950145242424E-01  2.765075995729E+00  6.829876101368E+00
 O   1.511336774506E+00  1.246816812900E+01  5.960292423123E+00
 H   2.360738254775E+00  1.214756761868E+01  6.373366763416E+00
 H   7.770954735299E-01  1.190776990102E+01  6.343099009588E+00
 O  -3.673449034408E+00  8.665952242211E+00  5.927172159629E+00
 H  -3.731670400762E+00  9.535973810722E+00  6.382852579820E+00
 H  -2.706640215946E+00  8.428612852962E+00  5.955437135995E+00
 O  -1.153201518433E+00  8.278580885040E+00  5.167462150029E+00
 O  -1.940602178672E+00  7.614967048480E+00  4.101765360781E+00
