  111
CERIA BULK                              
 O  -1.836462423272E+00  1.028630428250E+00  4.072064982326E+00
 O   1.310130395921E+01  5.425576091244E+00  9.152248754940E-01
 O   1.696285593399E+01  5.449448619211E+00  9.082875496560E-01
 O   1.879822402181E+00  1.130446178662E+00  4.225767924082E+00
 O   1.121451839961E+01  4.284855824064E+00  4.138688005305E+00
 O  -5.669688630384E+00  1.176504431748E+00  4.157694414203E+00
 O   1.313810520227E+01  3.246041920162E+00  2.439132872464E+00
 O   1.120177527468E+01  6.477171521112E+00  2.525979953925E+00
 CE  1.841199902659E+00 -1.046167131981E+00  3.254236904317E+00
 CE -1.355673784500E-02  2.165474287049E+00  3.306209244799E+00
 CE  3.765665484914E+00 -4.411493566878E+00  3.259409679556E+00
 CE  5.676593327273E+00 -1.060168964362E+00  3.256424331539E+00
 CE  3.757434111928E+00  2.177602633509E+00  3.249739597645E+00
 CE  7.525032055067E+00 -4.337153488872E+00  3.308815137651E+00
 CE -1.885814688396E+00 -1.062576722867E+00  3.239479508117E+00
 CE -3.742983553543E+00  2.184051016950E+00  3.287957924472E+00
 CE  3.726879072700E-02 -4.333639603051E+00  3.315428816102E+00
 O   2.477577186100E-02  3.355668539900E-02  2.424982041811E+00
 O  -1.843120684605E+00  3.210234702846E+00  2.417368284527E+00
 O   1.886406499120E+01  4.283058882399E+00  4.025512479088E+00
 O   3.701569287532E+00 -5.316995396900E-02  2.494786042064E+00
 O   1.493677997103E+01  4.237030004570E+00  4.151935093135E+00
 O   1.687822900691E+01  3.223674551167E+00  2.424609300761E+00
 O  -3.723851049394E+00  3.780498850100E-02  2.428987303661E+00
 O   1.686085219190E+01  7.682390463912E+00  4.133021232505E+00
 O   1.322774505241E+01  7.601760719540E+00  4.182616398314E+00
 O   1.849867009966E+00 -1.081929323050E+00  8.767978622560E-01
 O   1.462807039600E-02  2.169327623958E+00  8.556034177080E-01
 O   3.743472169167E+00 -4.362536024700E+00  8.806095995670E-01
 O   5.631979236695E+00 -1.091275726241E+00  8.706132653590E-01
 O   3.745844340485E+00  2.125485665541E+00  9.034558188300E-01
 O   1.892146955699E+01  6.602715701196E+00  2.545644218822E+00
 O  -1.856427378516E+00 -1.091167739558E+00  8.726330801870E-01
 O  -3.761395835570E+00  2.197243236519E+00  8.603538979250E-01
 O   1.498755632821E+01  6.478589824431E+00  2.445650441498E+00
 CE  5.789397795000E-03  7.160801088000E-03  3.923734225600E-02
 CE -1.871710569122E+00  3.249184250974E+00  3.910110941400E-02
 CE  1.884640890984E+00 -3.250182759641E+00  5.456398084200E-02
 CE  3.756072017292E+00 -3.445878979000E-03  6.539279120400E-02
 CE  1.868963459240E+00  3.254012083978E+00  7.165354592300E-02
 CE  5.640110883050E+00 -3.259786945674E+00  7.556267870100E-02
 CE -3.755609785046E+00  7.826248860000E-03  5.394871519500E-02
 CE -5.626357002843E+00  3.263045586697E+00  8.189614143900E-02
 CE -1.869581300107E+00 -3.246128193300E+00  8.728429754600E-02
 O  -1.866475594867E+00  1.088835802238E+00 -7.884453448510E-01
 O  -3.765910236900E+00  4.346651856845E+00 -7.928011802010E-01
 O   3.237803286000E-03 -2.168985112768E+00 -7.971842535930E-01
 O   1.885928317623E+00  1.079263298148E+00 -7.874698204170E-01
 O   2.215555302000E-03  4.347209766877E+00 -7.675852473350E-01
 O   3.752362063084E+00 -2.174030962662E+00 -7.698529916510E-01
 O  -5.652391506380E+00  1.103901323219E+00 -7.840798559250E-01
 O  -7.505731413448E+00  4.351556530412E+00 -7.323165025620E-01
 O  -3.749793845578E+00 -2.185818995638E+00 -7.798813720100E-01
 O   0.000000000000E+00  0.000000000000E+00 -2.343480358560E+00
 O  -1.880795731568E+00  3.253506747103E+00 -2.343480358560E+00
 O   1.880795731573E+00 -3.253506747098E+00 -2.343480358560E+00
 O   3.755481163848E+00 -3.489616379000E-03 -2.343480358560E+00
 O   1.874685432275E+00  3.250017130732E+00 -2.343480358560E+00
 O   5.636276895431E+00 -3.256996363479E+00 -2.343480358560E+00
 O  -3.755481163848E+00  3.489616369000E-03 -2.343480358560E+00
 O  -5.636276895431E+00  3.256996363479E+00 -2.343480358560E+00
 O  -1.874685432280E+00 -3.250017130727E+00 -2.343480358560E+00
 CE -1.878758965141E+00  1.085665454491E+00 -3.124640478080E+00
 CE -3.759554696703E+00  4.339172201600E+00 -3.124640478080E+00
 CE  2.036766432000E-03 -2.167841292608E+00 -3.124640478080E+00
 CE  1.876722198708E+00  1.082175838117E+00 -3.124640478080E+00
 CE -4.073532862000E-03  4.335682585223E+00 -3.124640478080E+00
 CE  3.757517930280E+00 -2.171330908985E+00 -3.124640478080E+00
 CE -5.634240129031E+00  1.089155070853E+00 -3.124640478080E+00
 CE -7.515035860557E+00  4.342661817978E+00 -3.124640478080E+00
 CE -3.753444397418E+00 -2.164351676238E+00 -3.124640478080E+00
 O   1.878758965141E+00 -1.085665454491E+00 -3.905800597599E+00
 O  -2.036766432000E-03  2.167841292608E+00 -3.905800597599E+00
 O   3.759554696703E+00 -4.339172201600E+00 -3.905800597599E+00
 O   5.634240129031E+00 -1.089155070853E+00 -3.905800597599E+00
 O   3.753444397422E+00  2.164351676239E+00 -3.905800597599E+00
 O   7.515035860557E+00 -4.342661817978E+00 -3.905800597599E+00
 O  -1.876722198708E+00 -1.082175838117E+00 -3.905800597599E+00
 O  -3.757517930283E+00  2.171330908984E+00 -3.905800597599E+00
 O   4.073532861000E-03 -4.335682585224E+00 -3.905800597599E+00
 O  -3.350702092570E+00  2.158563514306E+00  5.933541635395E+00
 H  -2.551970001371E+00  1.595555781899E+00  5.870756903389E+00
 O   2.472111598977E+00  2.526810245654E+00  6.555715013857E+00
 H   2.344457315282E+00  3.482272696612E+00  6.324919007913E+00
 H   2.280223748707E+00  2.015846197491E+00  5.723333452014E+00
 H  -4.020301857526E+00  1.760348651004E+00  6.515069317389E+00
 O  -5.982033257296E+00  1.970970675658E+00  6.685396527465E+00
 H  -5.883210566349E+00  1.597431000044E+00  5.756888772892E+00
 H   4.319409221042E+00  2.092505552564E+00  6.813053083981E+00
 H   7.587452235640E+00 -3.723616903077E+00  6.499502109198E+00
 O   7.320151089329E+00 -4.585633694177E+00  6.063468811095E+00
 O  -3.810878346380E-01 -2.273717643152E+00  6.695555521845E+00
 H  -2.877443910280E-01 -2.148722005526E+00  5.687770174950E+00
 H  -2.875086156060E-01 -3.258115955205E+00  6.751515117182E+00
 O   3.741838059736E+00 -2.231177565988E+00  4.399127079277E+00
 H   3.498740507933E+00 -2.028213448128E+00  5.322386264812E+00
 O   2.008598718380E+00 -8.918715204900E-01  6.143985943266E+00
 H   1.790585145491E+00  1.432850948700E-02  5.838763763569E+00
 H   1.188341493757E+00 -1.310553576769E+00  6.495568942245E+00
 H   6.342253749991E+00 -4.638702539233E+00  6.073866775869E+00
 H  -6.839859857647E+00  4.563142178636E+00  5.578461843492E+00
 O  -6.028250826803E+00  4.822738265877E+00  6.114523431395E+00
 H  -5.616384286725E+00  3.962819284038E+00  6.348492991091E+00
 O  -3.179509522270E+00 -2.140373244915E+00  6.818551667506E+00
 H  -2.190270550442E+00 -2.140776434946E+00  6.835054755118E+00
 H  -3.411763511132E+00 -1.995654509469E+00  5.851574104772E+00
 O  -3.329542921000E-01  2.352952997772E+00  6.114246910825E+00
 H   5.635445931570E-01  2.394469698250E+00  6.507409310437E+00
 H  -5.883561874900E-01  3.298661735901E+00  5.988848981407E+00
 O   3.938995383211E+00  1.482013409328E+01  7.510015760536E+00
 O   3.814654888900E+00  1.498087815249E+01  6.202901708063E+00
