  111
CERIA BULK                              
 O  -1.810185097265E+00  1.074001061049E+00  4.118634170897E+00
 O   1.306757086103E+01  5.433681315403E+00  8.832671972500E-01
 O   1.685316160613E+01  5.426939462802E+00  8.513497137380E-01
 O   1.834371068591E+00  1.242428217009E+00  4.220433877415E+00
 O   1.107569870249E+01  4.262917065697E+00  4.224350276399E+00
 O  -5.691265848715E+00  1.291222909351E+00  4.098169951366E+00
 O   1.305955110369E+01  3.303861262645E+00  2.449422697960E+00
 O   1.118163952698E+01  6.500424355305E+00  2.551319382651E+00
 CE  1.838705175057E+00 -1.044600190490E+00  3.421007085376E+00
 CE -2.926926227900E-02  2.149750885918E+00  3.271353589410E+00
 CE  3.730573778618E+00 -4.378953674017E+00  3.231552154827E+00
 CE  5.697129558855E+00 -1.003241968851E+00  3.694368924391E+00
 CE  3.741302945979E+00  2.174432486773E+00  3.248301270247E+00
 CE  7.486028326780E+00 -4.323137830985E+00  3.353980085939E+00
 CE -1.880122417313E+00 -1.078108783729E+00  3.269719779848E+00
 CE -3.748266869337E+00  2.180623020480E+00  3.374606841917E+00
 CE  1.161860279900E-02 -4.321861257987E+00  3.245602563237E+00
 O  -5.202242774000E-03  1.622582801000E-03  2.456455992200E+00
 O  -1.893251270575E+00  3.217053261095E+00  2.419013000151E+00
 O   1.872670901660E+01  4.382320280721E+00  4.091128551753E+00
 O   3.779699539971E+00 -5.368676148400E-02  2.587136111256E+00
 O   1.502431334655E+01  4.299199671359E+00  4.150656131384E+00
 O   1.685540824580E+01  3.301864258064E+00  2.397094662143E+00
 O  -3.770549903460E+00  2.645615681700E-02  2.558498142590E+00
 O   1.669361077844E+01  7.525772201973E+00  4.209136811883E+00
 O   1.322105260708E+01  7.460269669963E+00  4.059850211890E+00
 O   1.889436850827E+00 -1.065869046245E+00  8.760286921690E-01
 O   2.538491558000E-03  2.176202625214E+00  8.769327587920E-01
 O   3.744370093107E+00 -4.333562355980E+00  8.764622313960E-01
 O   5.626805420119E+00 -1.079221687575E+00  8.551998335850E-01
 O   3.728991783666E+00  2.148407409776E+00  9.070419063540E-01
 O   1.871314952505E+01  6.518853298208E+00  2.458967070418E+00
 O  -1.905222496506E+00 -1.082738388770E+00  9.079927312880E-01
 O  -3.746232046262E+00  2.143870865875E+00  8.720929792510E-01
 O   1.498842546546E+01  6.439078771709E+00  2.404267388114E+00
 CE  9.681337615000E-03 -1.595492380000E-04  8.505184145000E-02
 CE -1.876169614198E+00  3.230408706368E+00  6.235356958600E-02
 CE  1.872724967501E+00 -3.221307604120E+00  8.809680265200E-02
 CE  3.749274841438E+00 -1.689647698900E-02  1.373591253200E-01
 CE  1.860285850575E+00  3.253394731090E+00  7.668882458500E-02
 CE  5.613689455118E+00 -3.217351733360E+00  1.226271635240E-01
 CE -3.761951273008E+00 -2.232190174000E-03  1.099403031180E-01
 CE -5.598097880583E+00  3.240108653180E+00  7.743488857700E-02
 CE -1.876694493555E+00 -3.242051407197E+00  7.845650277000E-02
 O  -1.881644611486E+00  1.082570351243E+00 -7.927142238610E-01
 O  -3.734073829320E+00  4.321124335345E+00 -7.948985560530E-01
 O  -7.587451977000E-03 -2.162798723165E+00 -7.896093884250E-01
 O   1.883503364105E+00  1.099483112147E+00 -7.877755990590E-01
 O   6.470970369995E-04  4.327825437453E+00 -7.924900992410E-01
 O   3.742150677749E+00 -2.163917034771E+00 -7.802294746440E-01
 O  -5.618835486376E+00  1.087646873798E+00 -7.841208017830E-01
 O  -7.482799862705E+00  4.319246318191E+00 -7.800391912050E-01
 O  -3.734880723208E+00 -2.163268272819E+00 -7.946075453670E-01
 O   0.000000000000E+00  0.000000000000E+00 -2.343480358560E+00
 O  -1.868700218659E+00  3.243369977091E+00 -2.343480358560E+00
 O   1.868700218664E+00 -3.243369977086E+00 -2.343480358560E+00
 O   3.739642725372E+00  1.328777361000E-03 -2.343480358560E+00
 O   1.870942506707E+00  3.244698754458E+00 -2.343480358560E+00
 O   5.608342944045E+00 -3.242041199726E+00 -2.343480358560E+00
 O  -3.739642725372E+00 -1.328777371000E-03 -2.343480358560E+00
 O  -5.608342944045E+00  3.242041199726E+00 -2.343480358560E+00
 O  -1.870942506712E+00 -3.244698754453E+00 -2.343480358560E+00
 CE -1.869447648011E+00  1.080680399908E+00 -3.124640478080E+00
 CE -3.738147866665E+00  4.324050377004E+00 -3.124640478080E+00
 CE -7.474293479999E-04 -2.162689577181E+00 -3.124640478080E+00
 CE  1.870195077360E+00  1.082009177273E+00 -3.124640478080E+00
 CE  1.494858699000E-03  4.325379154366E+00 -3.124640478080E+00
 CE  3.738895296023E+00 -2.161360799817E+00 -3.124640478080E+00
 CE -5.609090373425E+00  1.079351622529E+00 -3.124640478080E+00
 CE -7.477790592044E+00  4.322721599642E+00 -3.124640478080E+00
 CE -3.740390154723E+00 -2.164018354550E+00 -3.124640478080E+00
 O   1.869447648011E+00 -1.080680399908E+00 -3.905800597599E+00
 O   7.474293479999E-04  2.162689577181E+00 -3.905800597599E+00
 O   3.738147866665E+00 -4.324050377004E+00 -3.905800597599E+00
 O   5.609090373425E+00 -1.079351622529E+00 -3.905800597599E+00
 O   3.740390154727E+00  2.164018354551E+00 -3.905800597599E+00
 O   7.477790592044E+00 -4.322721599642E+00 -3.905800597599E+00
 O  -1.870195077360E+00 -1.082009177273E+00 -3.905800597599E+00
 O  -3.738895296026E+00  2.161360799816E+00 -3.905800597599E+00
 O  -1.494858700000E-03 -4.325379154367E+00 -3.905800597599E+00
 O  -3.824764465206E+00  2.149250431541E+00  5.985452795420E+00
 H  -2.880950123961E+00  2.198704496898E+00  6.241584132377E+00
 O   1.957685461226E+00  2.372252849608E+00  6.622710505041E+00
 H   2.120477874572E+00  3.319165113509E+00  6.413479779836E+00
 H   1.891118540072E+00  1.895185762654E+00  5.733759661262E+00
 H  -4.123525410438E+00  1.162096465265E+00  6.028427590912E+00
 O  -7.537533727663E+00  2.930324153530E-01  7.548185094121E+00
 H  -6.788554224821E+00  3.559056016000E-03  6.940730872299E+00
 H   3.327494578051E+00  1.152825594452E+00  7.215196831551E+00
 H   7.557017214903E+00 -3.641301440421E+00  6.464645392159E+00
 O   7.318265322968E+00 -4.507675398206E+00  5.989963573806E+00
 O  -3.463358622850E-01 -2.646166138178E+00  6.778406500816E+00
 H  -3.276522630330E-01 -2.434624044879E+00  5.784600157258E+00
 H  -2.554408338790E-01 -3.633635021455E+00  6.784116822966E+00
 O   3.753474198579E+00 -2.347425044816E+00  4.439908549373E+00
 H   3.446086858030E+00 -2.223389173923E+00  5.361333730313E+00
 O   2.007363681231E+00 -1.303637252110E+00  6.151134259967E+00
 H   2.501733869705E+00 -6.949884479160E-01  6.766589096802E+00
 H   1.239592439258E+00 -1.733522220727E+00  6.593683850344E+00
 H   6.348599206460E+00 -4.601617536343E+00  5.974951887411E+00
 H  -6.590995257928E+00  4.194002912526E+00  5.741587602907E+00
 O  -5.906210613373E+00  4.315200107505E+00  6.450608573310E+00
 H  -5.173494569586E+00  3.691185872048E+00  6.251903258686E+00
 O  -3.175643523107E+00 -2.292043162455E+00  7.242580690598E+00
 H  -2.209264782646E+00 -2.308572284148E+00  7.051323412098E+00
 H  -3.590115161147E+00 -1.566465614864E+00  6.663914486214E+00
 O  -8.781236839470E-01  3.133453100237E+00  6.699022051820E+00
 H  -8.492982899985E-05  2.708738265281E+00  6.818931126080E+00
 H  -7.635142734170E-01  3.615469744301E+00  5.843014674751E+00
 O   1.249597531250E+00  9.364198237611E+00  5.807093106762E+00
 O  -1.317664663240E-01  8.833884886615E+00  5.920969202367E+00
  111
CERIA BULK                              
 O  -1.810185097265E+00  1.074001061049E+00  4.118634170897E+00
 O   1.306757086103E+01  5.433681315403E+00  8.832671972503E-01
 O   1.685316160613E+01  5.426939462802E+00  8.513497137376E-01
 O   1.834371068591E+00  1.242428217009E+00  4.220433877415E+00
 O   1.107569870249E+01  4.262917065697E+00  4.224350276399E+00
 O  -5.691265848715E+00  1.291222909351E+00  4.098169951366E+00
 O   1.305955110369E+01  3.303861262645E+00  2.449422697960E+00
 O   1.118163952698E+01  6.500424355305E+00  2.551319382651E+00
 CE  1.838705175057E+00 -1.044600190490E+00  3.421007085376E+00
 CE -2.926926227894E-02  2.149750885918E+00  3.271353589410E+00
 CE  3.730573778618E+00 -4.378953674017E+00  3.231552154827E+00
 CE  5.697129558855E+00 -1.003241968851E+00  3.694368924391E+00
 CE  3.741302945979E+00  2.174432486773E+00  3.248301270247E+00
 CE  7.486028326780E+00 -4.323137830985E+00  3.353980085939E+00
 CE -1.880122417313E+00 -1.078108783730E+00  3.269719779848E+00
 CE -3.748266869337E+00  2.180623020480E+00  3.374606841917E+00
 CE  1.161860279915E-02 -4.321861257987E+00  3.245602563237E+00
 O  -5.202242774481E-03  1.622582801466E-03  2.456455992200E+00
 O  -1.893251270575E+00  3.217053261095E+00  2.419013000151E+00
 O   1.872670901660E+01  4.382320280721E+00  4.091128551753E+00
 O   3.779699539971E+00 -5.368676148448E-02  2.587136111256E+00
 O   1.502431334655E+01  4.299199671359E+00  4.150656131384E+00
 O   1.685540824580E+01  3.301864258064E+00  2.397094662143E+00
 O  -3.770549903460E+00  2.645615681695E-02  2.558498142590E+00
 O   1.669361077845E+01  7.525772201973E+00  4.209136811883E+00
 O   1.322105260708E+01  7.460269669963E+00  4.059850211890E+00
 O   1.889436850827E+00 -1.065869046245E+00  8.760286921694E-01
 O   2.538491557757E-03  2.176202625214E+00  8.769327587923E-01
 O   3.744370093107E+00 -4.333562355980E+00  8.764622313961E-01
 O   5.626805420119E+00 -1.079221687575E+00  8.551998335847E-01
 O   3.728991783666E+00  2.148407409776E+00  9.070419063543E-01
 O   1.871314952505E+01  6.518853298208E+00  2.458967070418E+00
 O  -1.905222496506E+00 -1.082738388770E+00  9.079927312876E-01
 O  -3.746232046262E+00  2.143870865875E+00  8.720929792507E-01
 O   1.498842546545E+01  6.439078771708E+00  2.404267388114E+00
 CE  9.681337614725E-03 -1.595492381586E-04  8.505184144977E-02
 CE -1.876169614198E+00  3.230408706368E+00  6.235356958606E-02
 CE  1.872724967501E+00 -3.221307604120E+00  8.809680265236E-02
 CE  3.749274841438E+00 -1.689647698924E-02  1.373591253202E-01
 CE  1.860285850575E+00  3.253394731090E+00  7.668882458526E-02
 CE  5.613689455118E+00 -3.217351733360E+00  1.226271635239E-01
 CE -3.761951273008E+00 -2.232190173773E-03  1.099403031180E-01
 CE -5.598097880584E+00  3.240108653180E+00  7.743488857727E-02
 CE -1.876694493555E+00 -3.242051407197E+00  7.845650277004E-02
 O  -1.881644611486E+00  1.082570351243E+00 -7.927142238612E-01
 O  -3.734073829320E+00  4.321124335345E+00 -7.948985560527E-01
 O  -7.587451977387E-03 -2.162798723165E+00 -7.896093884247E-01
 O   1.883503364105E+00  1.099483112147E+00 -7.877755990586E-01
 O   6.470970370465E-04  4.327825437453E+00 -7.924900992410E-01
 O   3.742150677749E+00 -2.163917034771E+00 -7.802294746441E-01
 O  -5.618835486376E+00  1.087646873798E+00 -7.841208017834E-01
 O  -7.482799862705E+00  4.319246318191E+00 -7.800391912052E-01
 O  -3.734880723208E+00 -2.163268272819E+00 -7.946075453672E-01
 O   0.000000000000E+00  0.000000000000E+00 -2.343480358560E+00
 O  -1.868700218659E+00  3.243369977091E+00 -2.343480358560E+00
 O   1.868700218664E+00 -3.243369977086E+00 -2.343480358560E+00
 O   3.739642725372E+00  1.328777360781E-03 -2.343480358560E+00
 O   1.870942506707E+00  3.244698754458E+00 -2.343480358560E+00
 O   5.608342944045E+00 -3.242041199726E+00 -2.343480358560E+00
 O  -3.739642725372E+00 -1.328777370782E-03 -2.343480358560E+00
 O  -5.608342944045E+00  3.242041199726E+00 -2.343480358560E+00
 O  -1.870942506712E+00 -3.244698754453E+00 -2.343480358560E+00
 CE -1.869447648011E+00  1.080680399908E+00 -3.124640478080E+00
 CE -3.738147866665E+00  4.324050377004E+00 -3.124640478080E+00
 CE -7.474293479525E-04 -2.162689577181E+00 -3.124640478080E+00
 CE  1.870195077360E+00  1.082009177273E+00 -3.124640478080E+00
 CE  1.494858698902E-03  4.325379154366E+00 -3.124640478080E+00
 CE  3.738895296023E+00 -2.161360799817E+00 -3.124640478080E+00
 CE -5.609090373425E+00  1.079351622529E+00 -3.124640478080E+00
 CE -7.477790592044E+00  4.322721599642E+00 -3.124640478080E+00
 CE -3.740390154723E+00 -2.164018354550E+00 -3.124640478080E+00
 O   1.869447648011E+00 -1.080680399908E+00 -3.905800597599E+00
 O   7.474293479525E-04  2.162689577181E+00 -3.905800597599E+00
 O   3.738147866665E+00 -4.324050377004E+00 -3.905800597599E+00
 O   5.609090373425E+00 -1.079351622529E+00 -3.905800597599E+00
 O   3.740390154727E+00  2.164018354551E+00 -3.905800597599E+00
 O   7.477790592044E+00 -4.322721599642E+00 -3.905800597599E+00
 O  -1.870195077360E+00 -1.082009177273E+00 -3.905800597599E+00
 O  -3.738895296026E+00  2.161360799816E+00 -3.905800597599E+00
 O  -1.494858699901E-03 -4.325379154367E+00 -3.905800597599E+00
 O  -3.824764465206E+00  2.149250431541E+00  5.985452795420E+00
 H  -2.880950123961E+00  2.198704496898E+00  6.241584132376E+00
 O   1.957685461226E+00  2.372252849608E+00  6.622710505041E+00
 H   2.120477874572E+00  3.319165113509E+00  6.413479779836E+00
 H   1.891118540072E+00  1.895185762654E+00  5.733759661262E+00
 H  -4.123525410438E+00  1.162096465265E+00  6.028427590912E+00
 O  -7.537533727663E+00  2.930324153534E-01  7.548185094121E+00
 H  -6.788554224821E+00  3.559056015937E-03  6.940730872299E+00
 H   3.327494578051E+00  1.152825594452E+00  7.215196831551E+00
 H   7.557017214903E+00 -3.641301440421E+00  6.464645392159E+00
 O   7.318265322968E+00 -4.507675398206E+00  5.989963573806E+00
 O  -3.463358622845E-01 -2.646166138178E+00  6.778406500816E+00
 H  -3.276522630329E-01 -2.434624044879E+00  5.784600157258E+00
 H  -2.554408338788E-01 -3.633635021455E+00  6.784116822966E+00
 O   3.753474198579E+00 -2.347425044816E+00  4.439908549373E+00
 H   3.446086858030E+00 -2.223389173923E+00  5.361333730314E+00
 O   2.007363681231E+00 -1.303637252110E+00  6.151134259967E+00
 H   2.501733869705E+00 -6.949884479156E-01  6.766589096802E+00
 H   1.239592439258E+00 -1.733522220727E+00  6.593683850344E+00
 H   6.348599206460E+00 -4.601617536343E+00  5.974951887411E+00
 H  -6.590995257928E+00  4.194002912526E+00  5.741587602907E+00
 O  -5.906210613372E+00  4.315200107505E+00  6.450608573310E+00
 H  -5.173494569586E+00  3.691185872048E+00  6.251903258686E+00
 O  -3.175643523107E+00 -2.292043162455E+00  7.242580690598E+00
 H  -2.209264782646E+00 -2.308572284148E+00  7.051323412098E+00
 H  -3.590115161147E+00 -1.566465614864E+00  6.663914486215E+00
 O  -8.781236839469E-01  3.133453100237E+00  6.699022051820E+00
 H  -8.492982874397E-05  2.708738265281E+00  6.818931126080E+00
 H  -7.635142734170E-01  3.615469744301E+00  5.843014674751E+00
 O   1.249597531250E+00  9.364198237611E+00  5.807093106762E+00
 O  -1.317664663243E-01  8.833884886615E+00  5.920969202367E+00
  111
CERIA BULK                               E -1.7734909080395E+04 DE-3.7E-08(  8)
 O  -1.810178724284E+00  1.074047070639E+00  4.118688392488E+00
 O   1.306756472537E+01  5.433682557179E+00  8.832682454508E-01
 O   1.685318504921E+01  5.426953652456E+00  8.513876807307E-01
 O   1.834345983707E+00  1.242424866425E+00  4.220431342045E+00
 O   1.107571182349E+01  4.262949107140E+00  4.224412664711E+00
 O  -5.691286059537E+00  1.291252021676E+00  4.098176859716E+00
 O   1.305953490024E+01  3.303893877119E+00  2.449454202599E+00
 O   1.118164960368E+01  6.500432567123E+00  2.551364910090E+00
 CE  1.838687270688E+00 -1.044580060007E+00  3.420990447759E+00
 CE -2.931242067514E-02  2.149763057772E+00  3.271356725136E+00
 CE  3.730557497540E+00 -4.378926526111E+00  3.231602959101E+00
 CE  5.697121092116E+00 -1.003250108060E+00  3.694324646181E+00
 CE  3.741304255060E+00  2.174462657026E+00  3.248304326230E+00
 CE  7.486046702081E+00 -4.323155290285E+00  3.354044610072E+00
 CE -1.880137015434E+00 -1.078088334218E+00  3.269716619613E+00
 CE -3.748276078821E+00  2.180643369288E+00  3.374598060896E+00
 CE  1.158612817390E-02 -4.321858241947E+00  3.245569863107E+00
 O  -5.201990697782E-03  1.595251972553E-03  2.456480443376E+00
 O  -1.893308316111E+00  3.217103537810E+00  2.419037908465E+00
 O   1.872665527996E+01  4.382383849897E+00  4.091097038725E+00
 O   3.779687282947E+00 -5.365820749830E-02  2.587153226559E+00
 O   1.502427936751E+01  4.299194079030E+00  4.150711463036E+00
 O   1.685539561381E+01  3.301827435875E+00  2.397119025129E+00
 O  -3.770534925763E+00  2.650416739194E-02  2.558458326391E+00
 O   1.669357459942E+01  7.525765427032E+00  4.209107151538E+00
 O   1.322103898381E+01  7.460284226234E+00  4.059843713242E+00
 O   1.889439656278E+00 -1.065881617059E+00  8.760088534943E-01
 O   2.541266418861E-03  2.176218485330E+00  8.769522138090E-01
 O   3.744395547500E+00 -4.333541386103E+00  8.764925199158E-01
 O   5.626785542893E+00 -1.079223148736E+00  8.551861151446E-01
 O   3.728967653259E+00  2.148433402631E+00  9.070683579158E-01
 O   1.871320549817E+01  6.518852241008E+00  2.458960345724E+00
 O  -1.905244656025E+00 -1.082750746294E+00  9.080335024743E-01
 O  -3.746234863498E+00  2.143920705941E+00  8.720745954655E-01
 O   1.498842682637E+01  6.439100128136E+00  2.404255185046E+00
 CE  9.664996927137E-03 -1.465755423946E-04  8.506968094348E-02
 CE -1.876160068299E+00  3.230424794208E+00  6.238508831389E-02
 CE  1.872782850127E+00 -3.221316049249E+00  8.812762863855E-02
 CE  3.749257698577E+00 -1.689503808901E-02  1.373721426344E-01
 CE  1.860286636258E+00  3.253402053079E+00  7.670569342977E-02
 CE  5.613713480706E+00 -3.217380256520E+00  1.226110121656E-01
 CE -3.761973436896E+00 -2.207179933408E-03  1.099396725417E-01
 CE -5.598104592469E+00  3.240111162028E+00  7.743277765876E-02
 CE -1.876757553494E+00 -3.242060311010E+00  7.843942126259E-02
 O  -1.881680463645E+00  1.082561801417E+00 -7.926551634758E-01
 O  -3.734072184070E+00  4.321148520017E+00 -7.949059503547E-01
 O  -7.634884514721E-03 -2.162840229442E+00 -7.896409176469E-01
 O   1.883480841437E+00  1.099471370194E+00 -7.877736440588E-01
 O   6.439955560083E-04  4.327834157645E+00 -7.924835253894E-01
 O   3.742147610483E+00 -2.163926494907E+00 -7.802473639003E-01
 O  -5.618838231747E+00  1.087672079857E+00 -7.841445104720E-01
 O  -7.482789280024E+00  4.319252187847E+00 -7.800377736128E-01
 O  -3.734888654823E+00 -2.163285358774E+00 -7.945984710430E-01
 O   0.000000000000E+00  0.000000000000E+00 -2.343480358560E+00
 O  -1.868703028379E+00  3.243375611511E+00 -2.343480358560E+00
 O   1.868703028384E+00 -3.243375611506E+00 -2.343480358560E+00
 O   3.739646569407E+00  1.327754808888E-03 -2.343480358560E+00
 O   1.870943541022E+00  3.244703366326E+00 -2.343480358560E+00
 O   5.608349597800E+00 -3.242047856697E+00 -2.343480358560E+00
 O  -3.739646569407E+00 -1.327754818889E-03 -2.343480358560E+00
 O  -5.608349597800E+00  3.242047856697E+00 -2.343480358560E+00
 O  -1.870943541027E+00 -3.244703366321E+00 -2.343480358560E+00
 CE -1.869449865929E+00  1.080682618898E+00 -3.124640478080E+00
 CE -3.738152894304E+00  4.324058230414E+00 -3.124640478080E+00
 CE -7.468375460922E-04 -2.162692992610E+00 -3.124640478080E+00
 CE  1.870196703477E+00  1.082010373712E+00 -3.124640478080E+00
 CE  1.493675095182E-03  4.325385985224E+00 -3.124640478080E+00
 CE  3.738899731860E+00 -2.161365237798E+00 -3.124640478080E+00
 CE -5.609096435378E+00  1.079354864071E+00 -3.124640478080E+00
 CE -7.477799463717E+00  4.322730475604E+00 -3.124640478080E+00
 CE -3.740393406956E+00 -2.164020747427E+00 -3.124640478080E+00
 O   1.869449865929E+00 -1.080682618898E+00 -3.905800597599E+00
 O   7.468375460922E-04  2.162692992610E+00 -3.905800597599E+00
 O   3.738152894304E+00 -4.324058230414E+00 -3.905800597599E+00
 O   5.609096435378E+00 -1.079354864071E+00 -3.905800597599E+00
 O   3.740393406960E+00  2.164020747428E+00 -3.905800597599E+00
 O   7.477799463717E+00 -4.322730475604E+00 -3.905800597599E+00
 O  -1.870196703477E+00 -1.082010373712E+00 -3.905800597599E+00
 O  -3.738899731863E+00  2.161365237797E+00 -3.905800597599E+00
 O  -1.493675096180E-03 -4.325385985225E+00 -3.905800597599E+00
 O  -3.824809441560E+00  2.149241387612E+00  5.985456475816E+00
 H  -2.880979616508E+00  2.198743182076E+00  6.241552747033E+00
 O   1.957788004096E+00  2.372269911093E+00  6.622663517621E+00
 H   2.120580759356E+00  3.319188578285E+00  6.413488650787E+00
 H   1.891103635592E+00  1.895277404794E+00  5.733667144568E+00
 H  -4.123510010559E+00  1.162059611919E+00  6.028377070410E+00
 O  -7.537625638051E+00  2.929505402448E-01  7.548118935563E+00
 H  -6.788593053713E+00  3.519451658000E-03  6.940684057352E+00
 H   3.327477997725E+00  1.152800684027E+00  7.215190692451E+00
 H   7.557058388320E+00 -3.641194946882E+00  6.464575020685E+00
 O   7.318284674520E+00 -4.507636375300E+00  5.990015909084E+00
 O  -3.463603439288E-01 -2.646226288040E+00  6.778389097005E+00
 H  -3.277184970893E-01 -2.434612028231E+00  5.784597561262E+00
 H  -2.553434828394E-01 -3.633685004586E+00  6.784066476293E+00
 O   3.753423565128E+00 -2.347333881406E+00  4.439883288102E+00
 H   3.446062997016E+00 -2.223378546997E+00  5.361333432689E+00
 O   2.007253324745E+00 -1.303701614972E+00  6.151166436044E+00
 H   2.501682903174E+00 -6.950256418835E-01  6.766565371315E+00
 H   1.239478599154E+00 -1.733509928427E+00  6.593778025622E+00
 H   6.348617713636E+00 -4.601541587971E+00  5.975009208777E+00
 H  -6.591039911608E+00  4.194021373781E+00  5.741583642191E+00
 O  -5.906203663041E+00  4.315248632496E+00  6.450540506308E+00
 H  -5.173559074843E+00  3.691099912695E+00  6.251907814801E+00
 O  -3.175696100409E+00 -2.292009727257E+00  7.242559004201E+00
 H  -2.209300475138E+00 -2.308632396840E+00  7.051407878842E+00
 H  -3.590053197305E+00 -1.566371499914E+00  6.663870605806E+00
 O  -8.781285669449E-01  3.133473611439E+00  6.698901111511E+00
 H  -1.106454053408E-04  2.708754609980E+00  6.818904515439E+00
 H  -7.634005382008E-01  3.615535829009E+00  5.842901208505E+00
 O   1.249591477141E+00  9.364202794968E+00  5.807035042245E+00
 O  -1.317834837877E-01  8.833895021217E+00  5.920929362346E+00
  111
CERIA BULK                               E -1.7734909081312E+04 DE-2.7E-08(  6)
 O  -1.810178724284E+00  1.074047070639E+00  4.118688392488E+00
 O   1.306756472537E+01  5.433682557179E+00  8.832682454508E-01
 O   1.685318504921E+01  5.426953652456E+00  8.513876807307E-01
 O   1.834345983707E+00  1.242424866425E+00  4.220431342045E+00
 O   1.107571182349E+01  4.262949107140E+00  4.224412664711E+00
 O  -5.691286059537E+00  1.291252021676E+00  4.098176859716E+00
 O   1.305953490024E+01  3.303893877119E+00  2.449454202599E+00
 O   1.118164960368E+01  6.500432567123E+00  2.551364910090E+00
 CE  1.838687270688E+00 -1.044580060007E+00  3.420990447759E+00
 CE -2.931242067514E-02  2.149763057772E+00  3.271356725136E+00
 CE  3.730557497540E+00 -4.378926526111E+00  3.231602959101E+00
 CE  5.697121092116E+00 -1.003250108060E+00  3.694324646181E+00
 CE  3.741304255060E+00  2.174462657026E+00  3.248304326230E+00
 CE  7.486046702081E+00 -4.323155290285E+00  3.354044610072E+00
 CE -1.880137015434E+00 -1.078088334218E+00  3.269716619613E+00
 CE -3.748276078821E+00  2.180643369288E+00  3.374598060896E+00
 CE  1.158612817390E-02 -4.321858241947E+00  3.245569863107E+00
 O  -5.201990697782E-03  1.595251972553E-03  2.456480443376E+00
 O  -1.893308316111E+00  3.217103537810E+00  2.419037908465E+00
 O   1.872665527996E+01  4.382383849897E+00  4.091097038725E+00
 O   3.779687282947E+00 -5.365820749830E-02  2.587153226559E+00
 O   1.502427936751E+01  4.299194079030E+00  4.150711463036E+00
 O   1.685539561381E+01  3.301827435875E+00  2.397119025129E+00
 O  -3.770534925763E+00  2.650416739194E-02  2.558458326391E+00
 O   1.669357459942E+01  7.525765427032E+00  4.209107151538E+00
 O   1.322103898381E+01  7.460284226234E+00  4.059843713242E+00
 O   1.889439656278E+00 -1.065881617059E+00  8.760088534943E-01
 O   2.541266418861E-03  2.176218485330E+00  8.769522138090E-01
 O   3.744395547500E+00 -4.333541386103E+00  8.764925199158E-01
 O   5.626785542893E+00 -1.079223148736E+00  8.551861151446E-01
 O   3.728967653259E+00  2.148433402631E+00  9.070683579158E-01
 O   1.871320549817E+01  6.518852241008E+00  2.458960345724E+00
 O  -1.905244656025E+00 -1.082750746294E+00  9.080335024743E-01
 O  -3.746234863498E+00  2.143920705941E+00  8.720745954655E-01
 O   1.498842682637E+01  6.439100128136E+00  2.404255185046E+00
 CE  9.664996927137E-03 -1.465755423946E-04  8.506968094348E-02
 CE -1.876160068299E+00  3.230424794208E+00  6.238508831389E-02
 CE  1.872782850127E+00 -3.221316049249E+00  8.812762863855E-02
 CE  3.749257698577E+00 -1.689503808901E-02  1.373721426344E-01
 CE  1.860286636258E+00  3.253402053079E+00  7.670569342977E-02
 CE  5.613713480706E+00 -3.217380256520E+00  1.226110121656E-01
 CE -3.761973436896E+00 -2.207179933408E-03  1.099396725417E-01
 CE -5.598104592469E+00  3.240111162028E+00  7.743277765876E-02
 CE -1.876757553494E+00 -3.242060311010E+00  7.843942126259E-02
 O  -1.881680463645E+00  1.082561801417E+00 -7.926551634758E-01
 O  -3.734072184070E+00  4.321148520017E+00 -7.949059503547E-01
 O  -7.634884514721E-03 -2.162840229442E+00 -7.896409176469E-01
 O   1.883480841437E+00  1.099471370194E+00 -7.877736440588E-01
 O   6.439955560083E-04  4.327834157645E+00 -7.924835253894E-01
 O   3.742147610483E+00 -2.163926494907E+00 -7.802473639003E-01
 O  -5.618838231747E+00  1.087672079857E+00 -7.841445104720E-01
 O  -7.482789280024E+00  4.319252187847E+00 -7.800377736128E-01
 O  -3.734888654823E+00 -2.163285358774E+00 -7.945984710430E-01
 O   0.000000000000E+00  0.000000000000E+00 -2.343480358560E+00
 O  -1.868703028379E+00  3.243375611511E+00 -2.343480358560E+00
 O   1.868703028384E+00 -3.243375611506E+00 -2.343480358560E+00
 O   3.739646569407E+00  1.327754808888E-03 -2.343480358560E+00
 O   1.870943541022E+00  3.244703366326E+00 -2.343480358560E+00
 O   5.608349597800E+00 -3.242047856697E+00 -2.343480358560E+00
 O  -3.739646569407E+00 -1.327754818889E-03 -2.343480358560E+00
 O  -5.608349597800E+00  3.242047856697E+00 -2.343480358560E+00
 O  -1.870943541027E+00 -3.244703366321E+00 -2.343480358560E+00
 CE -1.869449865929E+00  1.080682618898E+00 -3.124640478080E+00
 CE -3.738152894304E+00  4.324058230414E+00 -3.124640478080E+00
 CE -7.468375460922E-04 -2.162692992610E+00 -3.124640478080E+00
 CE  1.870196703477E+00  1.082010373712E+00 -3.124640478080E+00
 CE  1.493675095182E-03  4.325385985224E+00 -3.124640478080E+00
 CE  3.738899731860E+00 -2.161365237798E+00 -3.124640478080E+00
 CE -5.609096435378E+00  1.079354864071E+00 -3.124640478080E+00
 CE -7.477799463717E+00  4.322730475604E+00 -3.124640478080E+00
 CE -3.740393406956E+00 -2.164020747427E+00 -3.124640478080E+00
 O   1.869449865929E+00 -1.080682618898E+00 -3.905800597599E+00
 O   7.468375460922E-04  2.162692992610E+00 -3.905800597599E+00
 O   3.738152894304E+00 -4.324058230414E+00 -3.905800597599E+00
 O   5.609096435378E+00 -1.079354864071E+00 -3.905800597599E+00
 O   3.740393406960E+00  2.164020747428E+00 -3.905800597599E+00
 O   7.477799463717E+00 -4.322730475604E+00 -3.905800597599E+00
 O  -1.870196703477E+00 -1.082010373712E+00 -3.905800597599E+00
 O  -3.738899731863E+00  2.161365237797E+00 -3.905800597599E+00
 O  -1.493675096180E-03 -4.325385985225E+00 -3.905800597599E+00
 O  -3.824809441560E+00  2.149241387612E+00  5.985456475816E+00
 H  -2.880979616508E+00  2.198743182076E+00  6.241552747033E+00
 O   1.957788004096E+00  2.372269911093E+00  6.622663517621E+00
 H   2.120580759356E+00  3.319188578285E+00  6.413488650787E+00
 H   1.891103635592E+00  1.895277404794E+00  5.733667144568E+00
 H  -4.123510010559E+00  1.162059611919E+00  6.028377070410E+00
 O  -7.537625638051E+00  2.929505402448E-01  7.548118935563E+00
 H  -6.788593053713E+00  3.519451658000E-03  6.940684057352E+00
 H   3.327477997725E+00  1.152800684027E+00  7.215190692451E+00
 H   7.557058388320E+00 -3.641194946882E+00  6.464575020685E+00
 O   7.318284674520E+00 -4.507636375300E+00  5.990015909084E+00
 O  -3.463603439288E-01 -2.646226288040E+00  6.778389097005E+00
 H  -3.277184970893E-01 -2.434612028231E+00  5.784597561262E+00
 H  -2.553434828394E-01 -3.633685004586E+00  6.784066476293E+00
 O   3.753423565128E+00 -2.347333881406E+00  4.439883288102E+00
 H   3.446062997016E+00 -2.223378546997E+00  5.361333432689E+00
 O   2.007253324745E+00 -1.303701614972E+00  6.151166436044E+00
 H   2.501682903174E+00 -6.950256418835E-01  6.766565371315E+00
 H   1.239478599154E+00 -1.733509928427E+00  6.593778025622E+00
 H   6.348617713636E+00 -4.601541587971E+00  5.975009208777E+00
 H  -6.591039911608E+00  4.194021373781E+00  5.741583642191E+00
 O  -5.906203663041E+00  4.315248632496E+00  6.450540506308E+00
 H  -5.173559074843E+00  3.691099912695E+00  6.251907814801E+00
 O  -3.175696100409E+00 -2.292009727257E+00  7.242559004201E+00
 H  -2.209300475138E+00 -2.308632396840E+00  7.051407878842E+00
 H  -3.590053197305E+00 -1.566371499914E+00  6.663870605806E+00
 O  -8.781285669449E-01  3.133473611439E+00  6.698901111511E+00
 H  -1.106454053408E-04  2.708754609980E+00  6.818904515439E+00
 H  -7.634005382008E-01  3.615535829009E+00  5.842901208505E+00
 O   1.249591477141E+00  9.364202794968E+00  5.807035042245E+00
 O  -1.317834837877E-01  8.833895021217E+00  5.920929362346E+00
