  113
CERIA BULK                              
 O  -1.880111657520E+00  1.095283210708E+00  4.181289277962E+00
 O  -3.713289662200E+00  4.251492706409E+00  3.892600577045E+00
 O  -9.551292266900E-02 -2.081942639296E+00  4.455638493669E+00
 O   1.846137836746E+00  1.238753589590E+00  4.190535170760E+00
 O  -1.094962817770E-01  4.240315164282E+00  4.119122874872E+00
 O  -5.637303948541E+00  1.107421452855E+00  4.055584328964E+00
 O  -7.384617019497E+00  4.286553591856E+00  4.056375901946E+00
 O  -3.751888813185E+00 -1.977892237344E+00  4.059684786661E+00
 CE  1.856030444710E+00 -9.870263631650E-01  3.303126557068E+00
 CE  1.230673959200E-02  2.176206727310E+00  3.187816380072E+00
 CE  3.725320763455E+00 -4.526203718473E+00  3.171511578415E+00
 CE  5.715058238336E+00 -9.985112352860E-01  3.171918843027E+00
 CE  3.753560008929E+00  2.230645059404E+00  3.161788193489E+00
 CE  7.517933520183E+00 -4.329974348851E+00  3.381693728294E+00
 CE -1.929218942168E+00 -1.046198688594E+00  3.214613883844E+00
 CE -3.765756482126E+00  2.175287368988E+00  3.240806150755E+00
 CE  9.915404961999E-03 -4.431024060701E+00  3.287364904753E+00
 O  -4.321694257500E-02 -5.665191215000E-03  2.449477902419E+00
 O  -1.857531120147E+00  3.194783461999E+00  2.365287821491E+00
 O   1.941168812719E+00 -3.222782663898E+00  2.634135928838E+00
 O   3.783644854140E+00 -1.745459338800E-02  2.440974336375E+00
 O   1.875816536153E+00  3.270961291039E+00  2.407127981882E+00
 O   5.408578148771E+00 -3.155191230888E+00  2.660635771253E+00
 O  -3.741342281186E+00  7.517416894200E-02  2.381077426475E+00
 O  -5.632797513119E+00  3.255124932961E+00  2.382773174727E+00
 O  -1.771910749126E+00 -3.214845956774E+00  2.517238801912E+00
 O   1.866056621894E+00 -1.090544824636E+00  8.571907224310E-01
 O   1.755897214800E-02  2.167032983548E+00  8.446848075310E-01
 O   3.748581090448E+00 -4.390099361108E+00  8.775948885950E-01
 O   5.673256273076E+00 -1.098103823862E+00  8.681447820110E-01
 O   3.752024266453E+00  2.178015156992E+00  8.574213121270E-01
 O   7.464451083108E+00 -4.282328469983E+00  9.352462219080E-01
 O  -1.901405983320E+00 -1.091967595460E+00  8.693915021450E-01
 O  -3.760298837153E+00  2.196950622455E+00  8.227375024790E-01
 O   4.561755408800E-02 -4.346349155017E+00  9.221886356890E-01
 CE  8.373284462000E-03 -6.535505138000E-03  2.445916565500E-02
 CE -1.881542483454E+00  3.261302802259E+00 -2.784808909000E-03
 CE  1.875094825474E+00 -3.257503753320E+00  5.569126588100E-02
 CE  3.746840501305E+00 -8.293239850000E-04  3.139879924700E-02
 CE  1.873606554542E+00  3.295727023234E+00  4.730034359700E-02
 CE  5.639460616290E+00 -3.264488644838E+00  4.267482056400E-02
 CE -3.754724768806E+00  1.246222855400E-02 -9.305669431000E-03
 CE -5.625742879765E+00  3.283281886343E+00  2.409221469300E-02
 CE -1.883665478108E+00 -3.262953884799E+00  7.613236480400E-02
 O  -1.872997393738E+00  1.088929594241E+00 -7.704527765560E-01
 O  -3.760090169291E+00  4.386678030719E+00 -7.633044944010E-01
 O  -7.412602346000E-03 -2.192731476082E+00 -7.432754609380E-01
 O   1.885302502490E+00  1.098328673382E+00 -7.562941395320E-01
 O   5.730484816000E-03  4.380694408642E+00 -7.491697563140E-01
 O   3.762293357061E+00 -2.186080192574E+00 -7.383536260480E-01
 O  -5.645443817438E+00  1.091557265180E+00 -7.599228315260E-01
 O  -7.521530852119E+00  4.395038164436E+00 -7.178179558870E-01
 O  -3.757029293801E+00 -2.182814965335E+00 -7.648613017330E-01
 O   0.000000000000E+00  0.000000000000E+00 -2.343480358560E+00
 O  -1.878736125483E+00  3.273344380403E+00 -2.343480358560E+00
 O   1.878736125487E+00 -3.273344380398E+00 -2.343480358560E+00
 O   3.757724425820E+00  2.027640190000E-04 -2.343480358560E+00
 O   1.878988300329E+00  3.273547144422E+00 -2.343480358560E+00
 O   5.636460551320E+00 -3.273141616379E+00 -2.343480358560E+00
 O  -3.757724425820E+00 -2.027640290000E-04 -2.343480358560E+00
 O  -5.636460551320E+00  3.273141616379E+00 -2.343480358560E+00
 O  -1.878988300335E+00 -3.273547144418E+00 -2.343480358560E+00
 CE -1.878820183769E+00  1.091047205458E+00 -3.124640478080E+00
 CE -3.757556309248E+00  4.364391585867E+00 -3.124640478080E+00
 CE -8.405828000023E-05 -2.182297174939E+00 -3.124640478080E+00
 CE  1.878904242050E+00  1.091249969482E+00 -3.124640478080E+00
 CE  1.681165640004E-04  4.364594349884E+00 -3.124640478080E+00
 CE  3.757640367539E+00 -2.182094410921E+00 -3.124640478080E+00
 CE -5.636544609628E+00  1.090844441426E+00 -3.124640478080E+00
 CE -7.515280735072E+00  4.364188821850E+00 -3.124640478080E+00
 CE -3.757808484102E+00 -2.182499938963E+00 -3.124640478080E+00
 O   1.878820183769E+00 -1.091047205458E+00 -3.905800597599E+00
 O   8.405828000023E-05  2.182297174939E+00 -3.905800597599E+00
 O   3.757556309248E+00 -4.364391585867E+00 -3.905800597599E+00
 O   5.636544609628E+00 -1.090844441426E+00 -3.905800597599E+00
 O   3.757808484106E+00  2.182499938964E+00 -3.905800597599E+00
 O   7.515280735072E+00 -4.364188821850E+00 -3.905800597599E+00
 O  -1.878904242050E+00 -1.091249969482E+00 -3.905800597599E+00
 O  -3.757640367541E+00  2.182094410921E+00 -3.905800597599E+00
 O  -1.681165650001E-04 -4.364594349884E+00 -3.905800597599E+00
 O   6.657358223960E-01 -4.552498193467E+00  5.907817927009E+00
 H   5.291380864724E+00  7.560587441132E+00  5.384711991400E+00
 H   8.398276499070E-01 -5.514565140741E+00  6.082033791058E+00
 H  -5.098398027500E-02 -4.205658105392E+00  6.495714805612E+00
 O   2.499883005544E+00  2.382931682924E+00  6.429435712687E+00
 H   2.107662702409E+00  1.874959899325E+00  5.636106466721E+00
 H   1.933207474466E+00  2.227286776819E+00  7.202044823619E+00
 O   3.873791529585E+00 -1.357280564333E+00  5.046095419451E+00
 H   4.111910387705E+00 -6.352162304530E-01  5.725448952210E+00
 H   3.709428264877E+00 -2.232115258561E+00  5.512011365241E+00
 O  -6.530813940147E+00  6.924813101460E-01  6.437372053346E+00
 H  -6.140656953040E+00  9.484792736360E-01  5.539397148311E+00
 H   4.005057413901E+00  1.324708625927E+00  6.617191407206E+00
 H   2.479237105569E+00  4.232006727682E+00  6.121209278390E+00
 O   7.765678229735E+00 -4.661020678172E+00  6.077720894764E+00
 H   6.905652722142E+00 -4.714244325569E+00  6.559427294834E+00
 H   2.351260929970E+00 -4.018119765510E+00  5.882333521607E+00
 O   3.297275274709E+00 -3.777811060690E+00  5.680967504022E+00
 H   3.918091179646E+00 -4.350520761479E+00  6.242294576977E+00
 H  -3.328753788133E+00  1.919927017540E+01  7.398367782403E+00
 O  -3.253971034075E+00  1.897112530890E+01  6.457892127625E+00
 H  -4.084729083185E+00  1.847912444136E+01  6.213878436269E+00
 O  -1.647979023974E+00  1.868154634956E+00  6.655548245492E+00
 H  -1.711991925217E+00  1.455294657064E+00  5.721344400456E+00
 H  -1.581194012271E+00  1.153349604677E+00  7.307198353995E+00
 H  -3.169645789900E-01  4.288470026360E+00  5.655512273657E+00
 O  -5.026801069530E-01  4.469995002032E+00  6.643728382987E+00
 H  -8.405837383180E-01  3.612558980795E+00  6.981057687766E+00
 O   1.405306499705E+00  1.242062235749E+01  6.144109938768E+00
 H   2.301401152184E+00  1.224077562917E+01  6.527669977621E+00
 H   7.874100378130E-01  1.178373207381E+01  6.556147198419E+00
 O   1.554791557112E+00 -1.167781180762E-01  8.040000000000E+00
 O   1.454786405747E+00 -4.310343068180E-01  6.576600000000E+00
