  113
CERIA BULK                              
 O  -1.858856652868E+00  1.162344076539E+00  4.102796335633E+00
 O  -3.708552588864E+00  4.252145364208E+00  3.896226903908E+00
 O  -6.254223409400E-02 -2.239112953009E+00  4.240555906910E+00
 O   1.879222345072E+00  1.251183076737E+00  4.074998662103E+00
 O  -6.139130917000E-02  4.276380826601E+00  4.059942578679E+00
 O  -5.674554290181E+00  1.101468128746E+00  4.068995426561E+00
 O  -7.479672801318E+00  4.260036817603E+00  4.097343899772E+00
 O  -3.843042574147E+00 -2.062104089947E+00  3.943823291791E+00
 CE  1.860572155767E+00 -9.995762885150E-01  3.290731140633E+00
 CE  1.672213416100E-02  2.183722710487E+00  3.158663158687E+00
 CE  3.738983758575E+00 -4.528805893150E+00  3.153869557474E+00
 CE  5.716065053919E+00 -1.005266661177E+00  3.144460133478E+00
 CE  3.756042540705E+00  2.228503900314E+00  3.160523519581E+00
 CE  7.518535806740E+00 -4.331500125096E+00  3.293735137586E+00
 CE -1.934363183866E+00 -1.061669844072E+00  3.297442107984E+00
 CE -3.774668388167E+00  2.180362339233E+00  3.242821943874E+00
 CE -1.209759940000E-03 -4.428853306171E+00  3.281665911143E+00
 O  -5.339454193800E-02 -1.201162702100E-02  2.451431043134E+00
 O  -1.858368523158E+00  3.222088036501E+00  2.332629102420E+00
 O   2.021110348817E+00 -3.226814895631E+00  2.562552908852E+00
 O   3.800444224386E+00 -2.358269733200E-02  2.409843063287E+00
 O   1.883634204251E+00  3.306505505290E+00  2.352256060665E+00
 O   5.428245449830E+00 -3.184188510862E+00  2.546664330838E+00
 O  -3.746315820979E+00  7.301529958800E-02  2.399047791579E+00
 O  -5.662395473129E+00  3.237022747826E+00  2.371852397823E+00
 O  -1.844917138880E+00 -3.241850088858E+00  2.482002979249E+00
 O   1.864849222208E+00 -1.080017471540E+00  8.455947470500E-01
 O   1.911089013500E-02  2.163036025780E+00  8.236001956510E-01
 O   3.756928828171E+00 -4.407441056877E+00  8.224693992930E-01
 O   5.689342279793E+00 -1.086012178270E+00  8.395840043850E-01
 O   3.755237134614E+00  2.176798293096E+00  8.308151576800E-01
 O   7.477208700185E+00 -4.291157593943E+00  8.887723809670E-01
 O  -1.906793476617E+00 -1.092903914065E+00  8.618129708210E-01
 O  -3.768804920066E+00  2.194110231127E+00  8.128267122260E-01
 O   4.199591863400E-02 -4.346711397692E+00  9.029885336330E-01
 CE  3.093102530000E-04 -1.384894664400E-02  4.129302258400E-02
 CE -1.887662702986E+00  3.263595034049E+00 -4.006472349000E-03
 CE  1.880344354566E+00 -3.263426660290E+00  6.871019428900E-02
 CE  3.754175227880E+00  5.622709342000E-03  2.821100520300E-02
 CE  1.881373662193E+00  3.296983177896E+00  3.150863689600E-02
 CE  5.641626041057E+00 -3.266420562464E+00  3.688670936900E-02
 CE -3.754787684293E+00  1.015130611500E-02  5.273413437000E-03
 CE -5.638751729144E+00  3.285487524720E+00  3.114753498100E-02
 CE -1.888010144021E+00 -3.259452710937E+00  8.023017240700E-02
 O  -1.879582120174E+00  1.086737646636E+00 -7.919762020740E-01
 O  -3.773918361551E+00  4.384218939214E+00 -7.863555901770E-01
 O  -7.782872849000E-03 -2.191705270539E+00 -7.629545446100E-01
 O   1.887064648227E+00  1.096819810242E+00 -7.849194306920E-01
 O   8.962361885000E-03  4.380676292483E+00 -7.806719978290E-01
 O   3.766702593626E+00 -2.180740525607E+00 -7.603132132660E-01
 O  -5.654497468484E+00  1.093309379823E+00 -7.833849659990E-01
 O  -7.532401127480E+00  4.396542892930E+00 -7.432347720210E-01
 O  -3.766190024768E+00 -2.182624161328E+00 -7.879676293490E-01
 O   0.000000000000E+00  0.000000000000E+00 -2.343480358560E+00
 O  -1.881447023968E+00  3.277421029664E+00 -2.343480358560E+00
 O   1.881447023972E+00 -3.277421029659E+00 -2.343480358560E+00
 O   3.765822675010E+00  1.723295739000E-03 -2.343480358560E+00
 O   1.884375651036E+00  3.279144325402E+00 -2.343480358560E+00
 O   5.647269698993E+00 -3.275697733918E+00 -2.343480358560E+00
 O  -3.765822675010E+00 -1.723295749000E-03 -2.343480358560E+00
 O  -5.647269698993E+00  3.275697733918E+00 -2.343480358560E+00
 O  -1.884375651043E+00 -3.279144325398E+00 -2.343480358560E+00
 CE -1.882423232993E+00  1.091899244638E+00 -3.124640478080E+00
 CE -3.763870256955E+00  4.369320274307E+00 -3.124640478080E+00
 CE -9.762090199998E-04 -2.185521785019E+00 -3.124640478080E+00
 CE  1.883399442013E+00  1.093622540383E+00 -3.124640478080E+00
 CE  1.952418046000E-03  4.371043570042E+00 -3.124640478080E+00
 CE  3.764846465988E+00 -2.183798489280E+00 -3.124640478080E+00
 CE -5.648245908042E+00  1.090175948886E+00 -3.124640478080E+00
 CE -7.529692931970E+00  4.367596978570E+00 -3.124640478080E+00
 CE -3.766798884035E+00 -2.187245080761E+00 -3.124640478080E+00
 O   1.882423232993E+00 -1.091899244638E+00 -3.905800597599E+00
 O   9.762090199998E-04  2.185521785019E+00 -3.905800597599E+00
 O   3.763870256955E+00 -4.369320274307E+00 -3.905800597599E+00
 O   5.648245908042E+00 -1.090175948886E+00 -3.905800597599E+00
 O   3.766798884039E+00  2.187245080762E+00 -3.905800597599E+00
 O   7.529692931970E+00 -4.367596978570E+00 -3.905800597599E+00
 O  -1.883399442013E+00 -1.093622540383E+00 -3.905800597599E+00
 O  -3.764846465990E+00  2.183798489280E+00 -3.905800597599E+00
 O  -1.952418047000E-03 -4.371043570042E+00 -3.905800597599E+00
 O   7.398294886330E-01 -4.694222205777E+00  6.028164009641E+00
 H   5.905313301831E+00  7.801352287835E+00  5.187925796656E+00
 H   9.600560406250E-01 -5.663614578570E+00  6.085863175416E+00
 H   2.055926597820E-01 -4.455688355644E+00  6.801625165908E+00
 O   2.170531945564E+00  1.596125441301E+00  6.704103581658E+00
 H   1.985876242845E+00  1.492960893860E+00  5.728444870737E+00
 H   1.576289457367E+00  9.202721523680E-01  7.098840407451E+00
 O   3.919380386700E+00 -1.515321485243E+00  4.918227354775E+00
 H   4.102468940447E+00 -7.724283531390E-01  5.624754263389E+00
 H   3.751444153033E+00 -2.370967872663E+00  5.416121124308E+00
 O  -6.715590505552E+00  4.534399368560E-01  6.405920462502E+00
 H  -6.317349606623E+00  8.535057347530E-01  5.578627196650E+00
 H   3.727531828437E+00  9.426022050190E-01  6.628006259228E+00
 H   2.494895483630E+00 -4.152911662161E+00  5.949038284019E+00
 O   3.422698186764E+00 -3.912113863403E+00  5.703148917320E+00
 H   4.091150383982E+00 -4.456580986139E+00  6.241696601655E+00
 H  -1.310133269085E+00  1.862587575698E+01  6.392930548514E+00
 O  -2.156244530005E+00  1.849874908367E+01  5.870778147477E+00
 H  -2.581344084689E+00  1.765181936568E+01  6.095472025322E+00
 O  -1.530378814922E+00  1.917991703490E+00  6.568267395254E+00
 H  -1.632390214467E+00  1.536768203106E+00  5.627069110322E+00
 H  -1.127271426771E+00  1.201045626962E+00  7.086489976766E+00
 H  -1.259734347860E-01  4.332835570677E+00  5.619531297868E+00
 O  -2.724212113230E-01  4.452075390026E+00  6.619164085101E+00
 H  -5.904085322350E-01  3.558824631733E+00  6.882908779458E+00
 O   1.536778446652E+00  1.230252339495E+01  6.101664465372E+00
 H   2.430593781127E+00  1.209646833220E+01  6.492364706043E+00
 H   9.234918316970E-01  1.160882245771E+01  6.405525037915E+00
 O  -1.000566788244E+01  1.869215198710E+01  6.185800000000E+00
 H  -1.071285522725E+01  1.826243899045E+01  6.717200000000E+00
 O  -4.303269169228E+00  1.616936972686E+01  5.963000000000E+00
 O  -3.281013950320E+00  1.529315935143E+01  5.668600000000E+00
 H  -9.327162497265E+00  1.801415315096E+01  5.947000000000E+00
