  113
CERIA BULK                              
 O  -1.854332008226E+00  1.154584237099E+00  4.114472158114E+00
 O  -3.697151883733E+00  4.244995597754E+00  3.907910780755E+00
 O  -3.187606609600E-02 -2.211317137210E+00  4.270391366141E+00
 O   1.887200941538E+00  1.223802052813E+00  4.087021820160E+00
 O  -5.920083744000E-02  4.261397037590E+00  4.068728514028E+00
 O  -5.675891569133E+00  1.095873076901E+00  4.073470459511E+00
 O  -7.481994745510E+00  4.243909800448E+00  4.101412003511E+00
 O  -3.850054388542E+00 -2.065861994196E+00  3.949261620073E+00
 CE  1.868642841005E+00 -1.001925990170E+00  3.263326636451E+00
 CE  2.126064970400E-02  2.173750420105E+00  3.167223345595E+00
 CE  3.745463561732E+00 -4.532058295998E+00  3.159909284668E+00
 CE  5.720937059308E+00 -1.007303972803E+00  3.150700477043E+00
 CE  3.761639502518E+00  2.224193509726E+00  3.168458672740E+00
 CE  7.518063032232E+00 -4.338104326865E+00  3.305538929673E+00
 CE -1.931625343546E+00 -1.069517708814E+00  3.311876773246E+00
 CE -3.773468662135E+00  2.174966064009E+00  3.249618562525E+00
 CE  6.355912367000E-03 -4.424474951619E+00  3.296294035554E+00
 O  -4.872260980900E-02 -2.071069555100E-02  2.451648358240E+00
 O  -1.855444553710E+00  3.215374919055E+00  2.336008551441E+00
 O   2.016061015810E+00 -3.228046065632E+00  2.567929898179E+00
 O   3.806866320121E+00 -2.976655287600E-02  2.409644473384E+00
 O   1.884582370007E+00  3.289099563610E+00  2.359006764736E+00
 O   5.428202372598E+00 -3.186273851579E+00  2.552024782575E+00
 O  -3.744763657823E+00  6.904498625400E-02  2.403739147310E+00
 O  -5.659679400840E+00  3.229783955939E+00  2.376955185986E+00
 O  -1.837422690283E+00 -3.231148433286E+00  2.493328630096E+00
 O   1.869762593759E+00 -1.081967778993E+00  8.449443310010E-01
 O   1.991599642800E-02  2.155923855801E+00  8.252509699180E-01
 O   3.757888318578E+00 -4.406627044752E+00  8.263288454270E-01
 O   5.692318414414E+00 -1.089126184742E+00  8.411641084090E-01
 O   3.757910125832E+00  2.172413341545E+00  8.329261531850E-01
 O   7.482178110773E+00 -4.295128909685E+00  8.954485869140E-01
 O  -1.905025978668E+00 -1.092141552456E+00  8.596533739030E-01
 O  -3.767337449451E+00  2.190412635889E+00  8.146283435270E-01
 O   4.275487109200E-02 -4.347296010109E+00  9.035666054440E-01
 CE -1.401563802000E-03 -1.532687361300E-02  3.828006232800E-02
 CE -1.886119230639E+00  3.259639243177E+00 -8.649991130000E-04
 CE  1.881593373126E+00 -3.267880975619E+00  6.703013201200E-02
 CE  3.760031620747E+00  4.306342643000E-03  2.632526473500E-02
 CE  1.883566976185E+00  3.292156642142E+00  3.685757734600E-02
 CE  5.645293393388E+00 -3.267884410785E+00  4.042678977500E-02
 CE -3.754261036394E+00  7.559182532000E-03  9.545722336000E-03
 CE -5.639323055531E+00  3.282656247318E+00  3.633012522400E-02
 CE -1.887353586948E+00 -3.260199998362E+00  8.739600123200E-02
 O  -1.877888269136E+00  1.084748501224E+00 -7.921256349240E-01
 O  -3.773111497399E+00  4.381395981348E+00 -7.844353041200E-01
 O  -5.263598182000E-03 -2.191742792777E+00 -7.609621872000E-01
 O   1.888253485302E+00  1.093430969677E+00 -7.838499573220E-01
 O   1.048157194100E-02  4.377018450840E+00 -7.773500698400E-01
 O   3.768534928892E+00 -2.182300689024E+00 -7.595110326610E-01
 O  -5.654760408826E+00  1.090480088078E+00 -7.823932654040E-01
 O  -7.533749543774E+00  4.392610743960E+00 -7.407799911590E-01
 O  -3.766372231017E+00 -2.185570699543E+00 -7.852529656170E-01
 O   0.000000000000E+00  0.000000000000E+00 -2.343480358560E+00
 O  -1.881725077207E+00  3.275908540662E+00 -2.343480358560E+00
 O   1.881725077211E+00 -3.275908540657E+00 -2.343480358560E+00
 O   3.766372541766E+00  1.718437987000E-03 -2.343480358560E+00
 O   1.884647464552E+00  3.277626978650E+00 -2.343480358560E+00
 O   5.648097618988E+00 -3.274190102668E+00 -2.343480358560E+00
 O  -3.766372541766E+00 -1.718437997000E-03 -2.343480358560E+00
 O  -5.648097618988E+00  3.274190102668E+00 -2.343480358560E+00
 O  -1.884647464558E+00 -3.277626978646E+00 -2.343480358560E+00
 CE -1.882699206325E+00  1.091396700888E+00 -3.124640478080E+00
 CE -3.764424283526E+00  4.367305241556E+00 -3.124640478080E+00
 CE -9.741291130001E-04 -2.184511839767E+00 -3.124640478080E+00
 CE  1.883673335437E+00  1.093115138882E+00 -3.124640478080E+00
 CE  1.948258230000E-03  4.369023679540E+00 -3.124640478080E+00
 CE  3.765398412651E+00 -2.182793401780E+00 -3.124640478080E+00
 CE -5.649071748128E+00  1.089678262886E+00 -3.124640478080E+00
 CE -7.530796825295E+00  4.365586803569E+00 -3.124640478080E+00
 CE -3.767346670881E+00 -2.186230277759E+00 -3.124640478080E+00
 O   1.882699206325E+00 -1.091396700888E+00 -3.905800597599E+00
 O   9.741291130001E-04  2.184511839767E+00 -3.905800597599E+00
 O   3.764424283526E+00 -4.367305241556E+00 -3.905800597599E+00
 O   5.649071748128E+00 -1.089678262886E+00 -3.905800597599E+00
 O   3.767346670885E+00  2.186230277760E+00 -3.905800597599E+00
 O   7.530796825295E+00 -4.365586803569E+00 -3.905800597599E+00
 O  -1.883673335437E+00 -1.093115138882E+00 -3.905800597599E+00
 O  -3.765398412653E+00  2.182793401780E+00 -3.905800597599E+00
 O  -1.948258231000E-03 -4.369023679540E+00 -3.905800597599E+00
 O   7.108144479700E-01 -4.687168245189E+00  6.026571945310E+00
 H   5.865108228132E+00  7.772487292181E+00  5.247524924006E+00
 H   1.007246045083E+00 -5.626431016635E+00  6.141841916755E+00
 H   9.761389771200E-02 -4.454271275586E+00  6.731389797889E+00
 O   2.251402287234E+00  1.592568701670E+00  6.719304809798E+00
 H   2.025655434821E+00  1.455841812662E+00  5.755923595640E+00
 H   1.800462834393E+00  8.318731817580E-01  7.178968567448E+00
 O   4.054806751347E+00 -1.530833014115E+00  4.848033825268E+00
 H   4.235579554682E+00 -8.014451476020E-01  5.562109129979E+00
 H   3.851621351788E+00 -2.381961797177E+00  5.342153960172E+00
 O  -6.641365079302E+00  4.627933472740E-01  6.341834066149E+00
 H  -6.254099011189E+00  8.678746722740E-01  5.510915060723E+00
 H   3.772816200779E+00  8.988058854940E-01  6.534023473492E+00
 H   2.978652243206E+00  4.767093668622E+00  5.694746114865E+00
 O   7.900585720399E+00 -4.425454062673E+00  5.925824022859E+00
 H   7.233246446821E+00 -4.887183750465E+00  6.484181328219E+00
 H   2.580283498071E+00 -4.151215901837E+00  5.847895295500E+00
 O   3.514220723705E+00 -3.915369045962E+00  5.637070581600E+00
 H   4.157376447991E+00 -4.453763528738E+00  6.211279699812E+00
 H  -1.300255154588E+00  1.863153014132E+01  6.514333916915E+00
 O  -2.139131671017E+00  1.862301387839E+01  5.957477441760E+00
 H  -2.622599726655E+00  1.779069927711E+01  6.064315729444E+00
 O  -1.549868055105E+00  1.857232570209E+00  6.602945022072E+00
 H  -1.638651990075E+00  1.497710062228E+00  5.655201129446E+00
 H  -1.190152692437E+00  1.116918812697E+00  7.119637675321E+00
 H  -9.787445451700E-02  4.322320337292E+00  5.629547959770E+00
 O  -2.237406452150E-01  4.459372928805E+00  6.626971712318E+00
 H  -5.440131720710E-01  3.573833975353E+00  6.914015839469E+00
 O   1.550925933074E+00  1.231434238342E+01  6.115603148737E+00
 H   2.434867120933E+00  1.207995422943E+01  6.508441785610E+00
 H   9.263118447370E-01  1.162529434893E+01  6.400610892035E+00
 O   1.851712838390E-01 -6.539937299790E-01  7.157250038142E+00
 O   1.014723862864E+00 -1.503735408160E+00  6.481968218946E+00
