  113
CERIA BULK                              
 O  -1.849068015651E+00  1.097712371462E+00  3.918974594646E+00
 O   1.315631673880E+01  5.484644258192E+00  9.289220851670E-01
 O   1.702281044449E+01  5.472916950338E+00  8.818637373210E-01
 O   1.808634847485E+00  1.038495108883E+00  4.120901154696E+00
 O   1.133172041590E+01  4.334220540901E+00  3.845915539969E+00
 O  -5.713307724890E+00  1.065834103419E+00  4.054624428536E+00
 O   1.325458687359E+01  3.229335934442E+00  2.418424277249E+00
 O   1.114252522808E+01  6.642874349314E+00  2.540114127257E+00
 CE  1.804906401356E+00 -1.047245635331E+00  3.124913823565E+00
 CE  2.031712100000E-03  2.180535966899E+00  3.208812820992E+00
 CE  3.749961822092E+00 -4.427092211156E+00  3.276643680696E+00
 CE  5.704962388156E+00 -1.033681330685E+00  3.267340673734E+00
 CE  3.783534279777E+00  2.186485343563E+00  3.268033838589E+00
 CE  7.528488556722E+00 -4.339952909286E+00  3.236717838089E+00
 CE -1.894582325387E+00 -1.088702987504E+00  3.221965952536E+00
 CE -3.769500181864E+00  2.154511140277E+00  3.239263912679E+00
 CE -1.026307903800E-02 -4.337688792903E+00  3.249019677565E+00
 O   5.754631431000E-03 -1.905483638000E-03  2.361352314445E+00
 O  -1.943858065337E+00  3.274224561808E+00  2.421985531387E+00
 O   1.883424554614E+01  4.368294265081E+00  4.114872439388E+00
 O   3.743858006802E+00 -6.508721888500E-02  2.462764422986E+00
 O   1.505285692862E+01  4.399076043713E+00  4.039827762880E+00
 O   1.696598169176E+01  3.305474961344E+00  2.455257034641E+00
 O  -3.800804533076E+00  1.640466379500E-02  2.445431613722E+00
 O   1.697553543282E+01  7.689913294201E+00  4.052772750238E+00
 O   1.325723643275E+01  7.592891997485E+00  3.867085170030E+00
 O   1.871360934213E+00 -1.089659548768E+00  8.387171632600E-01
 O  -7.304292068000E-03  2.192884897269E+00  8.610930132930E-01
 O   3.762321933258E+00 -4.356337865681E+00  8.654836852050E-01
 O   5.668366447180E+00 -1.063059339106E+00  8.744783783890E-01
 O   3.798471714309E+00  2.149798082886E+00  8.832908641800E-01
 O   1.893276089158E+01  6.584998688766E+00  2.478393402508E+00
 O  -1.908589660237E+00 -1.088546044681E+00  8.588615573100E-01
 O  -3.781032321221E+00  2.161502831435E+00  8.639760610780E-01
 O   1.515641239052E+01  6.530379531731E+00  2.403171305227E+00
 CE -1.510031751600E-02  4.820886517000E-03  1.015785531000E-03
 CE -1.884920112485E+00  3.261245175672E+00  2.462173711300E-02
 CE  1.882750011629E+00 -3.269384427983E+00  2.844546531600E-02
 CE  3.779033330489E+00  9.014574909000E-03  3.427554902000E-02
 CE  1.889725522033E+00  3.261296880201E+00  4.123874646700E-02
 CE  5.631921607749E+00 -3.242367252042E+00  5.040262773000E-02
 CE -3.779149167545E+00 -9.613237929000E-03  2.542099687500E-02
 CE -5.649301218549E+00  3.243578548062E+00  4.539143486500E-02
 CE -1.894489298411E+00 -3.261844728053E+00  4.335889457000E-02
 O  -1.889288736388E+00  1.084402345591E+00 -7.621919522070E-01
 O  -3.765793091895E+00  4.336716176900E+00 -7.607511560410E-01
 O  -1.534448306400E-02 -2.180277733305E+00 -7.535679442370E-01
 O   1.886424981179E+00  1.098011934232E+00 -7.492417952660E-01
 O   1.575045170200E-02  4.355291963680E+00 -7.539357961370E-01
 O   3.768605844505E+00 -2.167080096932E+00 -7.483677761360E-01
 O  -5.658576626480E+00  1.073035013474E+00 -7.618681892530E-01
 O  -7.545741101386E+00  4.337067035162E+00 -7.229440100090E-01
 O  -3.783025789773E+00 -2.195383960687E+00 -7.510551666000E-01
 O   0.000000000000E+00  0.000000000000E+00 -2.343480358560E+00
 O  -1.878497208120E+00  3.256559720387E+00 -2.343480358560E+00
 O   1.878497208125E+00 -3.256559720381E+00 -2.343480358560E+00
 O   3.770981625381E+00  8.220347536000E-03 -2.343480358560E+00
 O   1.892484417257E+00  3.264780067928E+00 -2.343480358560E+00
 O   5.649478833516E+00 -3.248339372846E+00 -2.343480358560E+00
 O  -3.770981625381E+00 -8.220347547000E-03 -2.343480358560E+00
 O  -5.649478833516E+00  3.248339372846E+00 -2.343480358560E+00
 O  -1.892484417262E+00 -3.264780067923E+00 -2.343480358560E+00
 CE -1.883159611168E+00  1.082779790948E+00 -3.124640478080E+00
 CE -3.761656819283E+00  4.339339511341E+00 -3.124640478080E+00
 CE -4.662403044000E-03 -2.173779929435E+00 -3.124640478080E+00
 CE  1.887822014213E+00  1.091000138489E+00 -3.124640478080E+00
 CE  9.324806090000E-03  4.347559858876E+00 -3.124640478080E+00
 CE  3.766319222339E+00 -2.165559581897E+00 -3.124640478080E+00
 CE -5.654141236593E+00  1.074559443393E+00 -3.124640478080E+00
 CE -7.532638444673E+00  4.331119163802E+00 -3.124640478080E+00
 CE -3.775644028429E+00 -2.182000276980E+00 -3.124640478080E+00
 O   1.883159611168E+00 -1.082779790948E+00 -3.905800597599E+00
 O   4.662403044000E-03  2.173779929435E+00 -3.905800597599E+00
 O   3.761656819283E+00 -4.339339511341E+00 -3.905800597599E+00
 O   5.654141236593E+00 -1.074559443393E+00 -3.905800597599E+00
 O   3.775644028434E+00  2.182000276981E+00 -3.905800597599E+00
 O   7.532638444673E+00 -4.331119163802E+00 -3.905800597599E+00
 O  -1.887822014213E+00 -1.091000138489E+00 -3.905800597599E+00
 O  -3.766319222342E+00  2.165559581896E+00 -3.905800597599E+00
 O  -9.324806091000E-03 -4.347559858877E+00 -3.905800597599E+00
 O  -4.865254905410E-01 -4.397169937587E+00  5.931660336911E+00
 H  -1.277841508567E+00 -4.893612053653E+00  5.586356334171E+00
 O   1.943236982949E+00 -5.819531233800E+00  6.721187291852E+00
 H   1.250788175400E+00 -5.386917361670E+00  7.248762056830E+00
 H   1.757944382417E+00 -5.572090565158E+00  5.762903617128E+00
 H  -7.805590719300E-01 -3.510046411146E+00  6.196076854168E+00
 O  -5.291087478400E-01  2.139033591314E+00  5.926578360935E+00
 H  -1.276105174503E+00  1.597448140218E+00  5.580424595252E+00
 O  -3.798969161592E+00  1.477204844605E+00  5.868313530394E+00
 H  -3.806951881359E+00  2.308471445874E+00  6.423842242454E+00
 H  -4.719416646383E+00  1.165950576667E+00  5.736122904984E+00
 H  -2.345597035970E-01  1.734782910485E+00  6.757739255864E+00
 O  -2.275342880247E+00 -8.803012367980E-01  5.822542605581E+00
 H  -2.722220831220E+00 -9.613563782000E-03  5.972916916447E+00
 H  -2.994228832750E+00 -1.520624275516E+00  5.957247081154E+00
 H   5.121749655512E+00 -1.399227910169E+00  6.235662109812E+00
 O   6.022124980463E+00 -1.376232671026E+00  5.840563863911E+00
 H   6.379333234576E+00 -2.289876628865E+00  5.935457721547E+00
 O   1.152490172926E+00 -7.844234118180E-01  6.044301895757E+00
 H   4.648633153230E-01 -1.326591112375E+00  5.568924220792E+00
 H   1.200385774541E+00  7.984365799700E-02  5.562165715563E+00
 O   6.880799043391E+00 -4.128341214642E+00  5.939103443601E+00
 H   1.718748256257E+00  5.197357966552E+00  6.660981425494E+00
 H   3.199573701570E-01  5.274945135628E+00  5.939458362694E+00
 O   3.325842314990E+00  2.198533279787E+00  5.935745602120E+00
 H   2.549680771144E+00  1.675010123912E+00  5.614924007717E+00
 H   3.791313767075E+00  1.661320996641E+00  6.595116632446E+00
 O  -7.135358331137E+00  1.510913338790E+01  5.910048636433E+00
 H  -7.689685428990E+00  1.445519604823E+01  6.401234936721E+00
 O  -2.177570943917E+00  7.861729244393E+00  5.934949828834E+00
 O  -2.035506484998E+00  7.711319723958E+00  4.454677538374E+00
 H  -3.105898743994E+00  8.286924801331E+00  6.042261235798E+00
 H  -1.837212032131E+00  6.230919636909E+00  6.182470950868E+00
  113
CERIA BULK                              
 O  -1.849068015651E+00  1.097712371462E+00  3.918974594646E+00
 O   1.315631673880E+01  5.484644258192E+00  9.289220851674E-01
 O   1.702281044449E+01  5.472916950338E+00  8.818637373205E-01
 O   1.808634847485E+00  1.038495108883E+00  4.120901154696E+00
 O   1.133172041590E+01  4.334220540901E+00  3.845915539969E+00
 O  -5.713307724890E+00  1.065834103419E+00  4.054624428536E+00
 O   1.325458687359E+01  3.229335934442E+00  2.418424277249E+00
 O   1.114252522808E+01  6.642874349314E+00  2.540114127257E+00
 CE  1.804906401356E+00 -1.047245635331E+00  3.124913823565E+00
 CE  2.031712100070E-03  2.180535966899E+00  3.208812820992E+00
 CE  3.749961822092E+00 -4.427092211156E+00  3.276643680696E+00
 CE  5.704962388156E+00 -1.033681330685E+00  3.267340673734E+00
 CE  3.783534279777E+00  2.186485343563E+00  3.268033838589E+00
 CE  7.528488556722E+00 -4.339952909286E+00  3.236717838089E+00
 CE -1.894582325387E+00 -1.088702987504E+00  3.221965952536E+00
 CE -3.769500181864E+00  2.154511140277E+00  3.239263912679E+00
 CE -1.026307903788E-02 -4.337688792903E+00  3.249019677565E+00
 O   5.754631430993E-03 -1.905483637712E-03  2.361352314445E+00
 O  -1.943858065337E+00  3.274224561808E+00  2.421985531387E+00
 O   1.883424554614E+01  4.368294265081E+00  4.114872439388E+00
 O   3.743858006802E+00 -6.508721888492E-02  2.462764422986E+00
 O   1.505285692862E+01  4.399076043713E+00  4.039827762880E+00
 O   1.696598169176E+01  3.305474961344E+00  2.455257034641E+00
 O  -3.800804533076E+00  1.640466379463E-02  2.445431613722E+00
 O   1.697553543282E+01  7.689913294201E+00  4.052772750238E+00
 O   1.325723643275E+01  7.592891997486E+00  3.867085170030E+00
 O   1.871360934213E+00 -1.089659548768E+00  8.387171632600E-01
 O  -7.304292067722E-03  2.192884897269E+00  8.610930132925E-01
 O   3.762321933258E+00 -4.356337865681E+00  8.654836852052E-01
 O   5.668366447180E+00 -1.063059339105E+00  8.744783783893E-01
 O   3.798471714309E+00  2.149798082886E+00  8.832908641799E-01
 O   1.893276089158E+01  6.584998688766E+00  2.478393402508E+00
 O  -1.908589660237E+00 -1.088546044681E+00  8.588615573098E-01
 O  -3.781032321221E+00  2.161502831435E+00  8.639760610777E-01
 O   1.515641239052E+01  6.530379531731E+00  2.403171305227E+00
 CE -1.510031751581E-02  4.820886517026E-03  1.015785531281E-03
 CE -1.884920112485E+00  3.261245175672E+00  2.462173711266E-02
 CE  1.882750011629E+00 -3.269384427983E+00  2.844546531580E-02
 CE  3.779033330489E+00  9.014574908824E-03  3.427554902043E-02
 CE  1.889725522033E+00  3.261296880201E+00  4.123874646651E-02
 CE  5.631921607748E+00 -3.242367252042E+00  5.040262772957E-02
 CE -3.779149167545E+00 -9.613237928981E-03  2.542099687454E-02
 CE -5.649301218549E+00  3.243578548062E+00  4.539143486519E-02
 CE -1.894489298411E+00 -3.261844728053E+00  4.335889457026E-02
 O  -1.889288736388E+00  1.084402345591E+00 -7.621919522075E-01
 O  -3.765793091895E+00  4.336716176900E+00 -7.607511560413E-01
 O  -1.534448306379E-02 -2.180277733305E+00 -7.535679442374E-01
 O   1.886424981179E+00  1.098011934232E+00 -7.492417952658E-01
 O   1.575045170226E-02  4.355291963680E+00 -7.539357961365E-01
 O   3.768605844505E+00 -2.167080096932E+00 -7.483677761357E-01
 O  -5.658576626480E+00  1.073035013474E+00 -7.618681892532E-01
 O  -7.545741101386E+00  4.337067035162E+00 -7.229440100086E-01
 O  -3.783025789773E+00 -2.195383960687E+00 -7.510551665996E-01
 O   0.000000000000E+00  0.000000000000E+00 -2.343480358560E+00
 O  -1.878497208120E+00  3.256559720387E+00 -2.343480358560E+00
 O   1.878497208126E+00 -3.256559720381E+00 -2.343480358560E+00
 O   3.770981625381E+00  8.220347535825E-03 -2.343480358560E+00
 O   1.892484417257E+00  3.264780067928E+00 -2.343480358560E+00
 O   5.649478833515E+00 -3.248339372846E+00 -2.343480358560E+00
 O  -3.770981625381E+00 -8.220347546808E-03 -2.343480358560E+00
 O  -5.649478833515E+00  3.248339372846E+00 -2.343480358560E+00
 O  -1.892484417262E+00 -3.264780067923E+00 -2.343480358560E+00
 CE -1.883159611167E+00  1.082779790948E+00 -3.124640478080E+00
 CE -3.761656819283E+00  4.339339511341E+00 -3.124640478080E+00
 CE -4.662403044021E-03 -2.173779929435E+00 -3.124640478080E+00
 CE  1.887822014213E+00  1.091000138489E+00 -3.124640478080E+00
 CE  9.324806090042E-03  4.347559858876E+00 -3.124640478080E+00
 CE  3.766319222339E+00 -2.165559581897E+00 -3.124640478080E+00
 CE -5.654141236593E+00  1.074559443393E+00 -3.124640478080E+00
 CE -7.532638444673E+00  4.331119163802E+00 -3.124640478080E+00
 CE -3.775644028429E+00 -2.182000276980E+00 -3.124640478080E+00
 O   1.883159611167E+00 -1.082779790948E+00 -3.905800597599E+00
 O   4.662403044021E-03  2.173779929435E+00 -3.905800597599E+00
 O   3.761656819283E+00 -4.339339511341E+00 -3.905800597599E+00
 O   5.654141236593E+00 -1.074559443393E+00 -3.905800597599E+00
 O   3.775644028434E+00  2.182000276981E+00 -3.905800597599E+00
 O   7.532638444673E+00 -4.331119163802E+00 -3.905800597599E+00
 O  -1.887822014213E+00 -1.091000138489E+00 -3.905800597599E+00
 O  -3.766319222342E+00  2.165559581896E+00 -3.905800597599E+00
 O  -9.324806091041E-03 -4.347559858877E+00 -3.905800597599E+00
 O  -4.865254905412E-01 -4.397169937587E+00  5.931660336911E+00
 H  -1.277841508567E+00 -4.893612053653E+00  5.586356334171E+00
 O   1.943236982949E+00 -5.819531233800E+00  6.721187291852E+00
 H   1.250788175400E+00 -5.386917361670E+00  7.248762056830E+00
 H   1.757944382416E+00 -5.572090565158E+00  5.762903617128E+00
 H  -7.805590719303E-01 -3.510046411146E+00  6.196076854169E+00
 O  -5.291087478399E-01  2.139033591314E+00  5.926578360935E+00
 H  -1.276105174503E+00  1.597448140218E+00  5.580424595253E+00
 O  -3.798969161592E+00  1.477204844605E+00  5.868313530393E+00
 H  -3.806951881359E+00  2.308471445874E+00  6.423842242454E+00
 H  -4.719416646383E+00  1.165950576667E+00  5.736122904984E+00
 H  -2.345597035966E-01  1.734782910485E+00  6.757739255864E+00
 O  -2.275342880247E+00 -8.803012367984E-01  5.822542605581E+00
 H  -2.722220831220E+00 -9.613563782366E-03  5.972916916447E+00
 H  -2.994228832750E+00 -1.520624275516E+00  5.957247081155E+00
 H   5.121749655512E+00 -1.399227910169E+00  6.235662109812E+00
 O   6.022124980463E+00 -1.376232671026E+00  5.840563863911E+00
 H   6.379333234576E+00 -2.289876628865E+00  5.935457721548E+00
 O   1.152490172926E+00 -7.844234118177E-01  6.044301895757E+00
 H   4.648633153235E-01 -1.326591112375E+00  5.568924220792E+00
 H   1.200385774541E+00  7.984365799652E-02  5.562165715563E+00
 O   6.880799043391E+00 -4.128341214642E+00  5.939103443601E+00
 H   1.718748256257E+00  5.197357966552E+00  6.660981425494E+00
 H   3.199573701572E-01  5.274945135628E+00  5.939458362694E+00
 O   3.325842314990E+00  2.198533279787E+00  5.935745602120E+00
 H   2.549680771144E+00  1.675010123912E+00  5.614924007717E+00
 H   3.791313767075E+00  1.661320996641E+00  6.595116632446E+00
 O  -7.135358331137E+00  1.510913338790E+01  5.910048636433E+00
 H  -7.689685428990E+00  1.445519604823E+01  6.401234936721E+00
 O  -2.177570943917E+00  7.861729244393E+00  5.934949828834E+00
 O  -2.035506484998E+00  7.711319723959E+00  4.454677538374E+00
 H  -3.105898743994E+00  8.286924801331E+00  6.042261235798E+00
 H  -1.837212032131E+00  6.230919636909E+00  6.182470950868E+00
  113
CERIA BULK                               E -1.7735393496223E+04 DE-4.3E-07(  2)
 O  -1.849070494168E+00  1.097679441779E+00  3.918938275278E+00
 O   1.315627269307E+01  5.484669181104E+00  9.289252803887E-01
 O   1.702282465297E+01  5.472925644513E+00  8.818403060657E-01
 O   1.808635077446E+00  1.038557614778E+00  4.120880701454E+00
 O   1.133174794920E+01  4.334245170379E+00  3.845895055794E+00
 O  -5.713276594307E+00  1.065821697039E+00  4.054557079788E+00
 O   1.325461614677E+01  3.229319462159E+00  2.418406314253E+00
 O   1.114253352041E+01  6.642984276024E+00  2.540149673922E+00
 CE  1.804926245046E+00 -1.047193261662E+00  3.124902510742E+00
 CE  2.049740215272E-03  2.180534145629E+00  3.208820224682E+00
 CE  3.749952535416E+00 -4.427156191360E+00  3.276654080095E+00
 CE  5.705010953920E+00 -1.033786533202E+00  3.267452304558E+00
 CE  3.783553329041E+00  2.186526780883E+00  3.268008150954E+00
 CE  7.528517963092E+00 -4.339935165286E+00  3.236733368825E+00
 CE -1.894585944018E+00 -1.088706346791E+00  3.221987746813E+00
 CE -3.769537790990E+00  2.154496180307E+00  3.239289815025E+00
 CE -1.021501354096E-02 -4.337663715036E+00  3.248964278322E+00
 O   5.744443597981E-03 -1.892598260958E-03  2.361356672185E+00
 O  -1.943896738208E+00  3.274201176626E+00  2.422010739047E+00
 O   1.883425394658E+01  4.368337116068E+00  4.114871458183E+00
 O   3.743848318171E+00 -6.513453628148E-02  2.462801865445E+00
 O   1.505283281042E+01  4.399085593899E+00  4.039851285337E+00
 O   1.696598234675E+01  3.305510749041E+00  2.455283647337E+00
 O  -3.800831734688E+00  1.639140718292E-02  2.445396127107E+00
 O   1.697552954534E+01  7.689901317622E+00  4.052741186484E+00
 O   1.325725835473E+01  7.592904138430E+00  3.867134347386E+00
 O   1.871382150442E+00 -1.089684808775E+00  8.387189064821E-01
 O  -7.321193302514E-03  2.192906974683E+00  8.610977111646E-01
 O   3.762336659189E+00 -4.356338319484E+00  8.654981078206E-01
 O   5.668320740988E+00 -1.063059655057E+00  8.744685647702E-01
 O   3.798525338836E+00  2.149782530340E+00  8.832914457515E-01
 O   1.893279578510E+01  6.584994621355E+00  2.478443442793E+00
 O  -1.908575230753E+00 -1.088554199359E+00  8.588297394428E-01
 O  -3.781060336816E+00  2.161501561049E+00  8.639864362630E-01
 O   1.515638570726E+01  6.530347271663E+00  2.403164345867E+00
 CE -1.509967442315E-02  4.797152969734E-03  1.046707077356E-03
 CE -1.884917647877E+00  3.261269721264E+00  2.460628096536E-02
 CE  1.882757843057E+00 -3.269377115898E+00  2.846773741128E-02
 CE  3.779048816567E+00  9.038164464940E-03  3.423783474622E-02
 CE  1.889732203259E+00  3.261295943157E+00  4.124424052816E-02
 CE  5.631901240404E+00 -3.242417314236E+00  5.032109280538E-02
 CE -3.779195804625E+00 -9.607644202907E-03  2.540897452754E-02
 CE -5.649304926271E+00  3.243627465101E+00  4.535862441479E-02
 CE -1.894446541866E+00 -3.261875713732E+00  4.335504110361E-02
 O  -1.889291975053E+00  1.084388851060E+00 -7.621669202660E-01
 O  -3.765776872735E+00  4.336716705225E+00 -7.607507520229E-01
 O  -1.532631464634E-02 -2.180285190994E+00 -7.535580724063E-01
 O   1.886425567685E+00  1.098026366112E+00 -7.492179293329E-01
 O   1.575590165037E-02  4.355294671074E+00 -7.539546525521E-01
 O   3.768603817167E+00 -2.167077546899E+00 -7.483462676565E-01
 O  -5.658569045479E+00  1.073047477783E+00 -7.618757526058E-01
 O  -7.545772415742E+00  4.337051415419E+00 -7.229343220577E-01
 O  -3.783041730949E+00 -2.195383878201E+00 -7.510223261006E-01
 O   0.000000000000E+00  0.000000000000E+00 -2.343480358560E+00
 O  -1.878498222588E+00  3.256560796359E+00 -2.343480358560E+00
 O   1.878498222593E+00 -3.256560796353E+00 -2.343480358560E+00
 O   3.770982643191E+00  8.219762642460E-03 -2.343480358560E+00
 O   1.892484420599E+00  3.264780559007E+00 -2.343480358560E+00
 O   5.649480865793E+00 -3.248341033711E+00 -2.343480358560E+00
 O  -3.770982643191E+00 -8.219762653443E-03 -2.343480358560E+00
 O  -5.649480865793E+00  3.248341033711E+00 -2.343480358560E+00
 O  -1.892484420604E+00 -3.264780559002E+00 -2.343480358560E+00
 CE -1.883160288593E+00  1.082780344569E+00 -3.124640478080E+00
 CE -3.761658511176E+00  4.339341140935E+00 -3.124640478080E+00
 CE -4.662066002358E-03 -2.173780451785E+00 -3.124640478080E+00
 CE  1.887822354597E+00  1.091000107218E+00 -3.124640478080E+00
 CE  9.324132006716E-03  4.347560903576E+00 -3.124640478080E+00
 CE  3.766320577190E+00 -2.165560689141E+00 -3.124640478080E+00
 CE -5.654142931828E+00  1.074560581908E+00 -3.124640478080E+00
 CE -7.532641154376E+00  4.331121378289E+00 -3.124640478080E+00
 CE -3.775644709197E+00 -2.182000214437E+00 -3.124640478080E+00
 O   1.883160288593E+00 -1.082780344569E+00 -3.905800597599E+00
 O   4.662066002358E-03  2.173780451785E+00 -3.905800597599E+00
 O   3.761658511176E+00 -4.339341140935E+00 -3.905800597599E+00
 O   5.654142931828E+00 -1.074560581908E+00 -3.905800597599E+00
 O   3.775644709202E+00  2.182000214438E+00 -3.905800597599E+00
 O   7.532641154376E+00 -4.331121378289E+00 -3.905800597599E+00
 O  -1.887822354597E+00 -1.091000107218E+00 -3.905800597599E+00
 O  -3.766320577193E+00  2.165560689140E+00 -3.905800597599E+00
 O  -9.324132007716E-03 -4.347560903577E+00 -3.905800597599E+00
 O  -4.865296376466E-01 -4.397173855774E+00  5.931641557820E+00
 H  -1.277844683352E+00 -4.893622242166E+00  5.586340719824E+00
 O   1.943277858690E+00 -5.819524181791E+00  6.721183588006E+00
 H   1.250814772901E+00 -5.386910441443E+00  7.248768664496E+00
 H   1.757987380923E+00 -5.572109789735E+00  5.762866658172E+00
 H  -7.805488206280E-01 -3.510066601419E+00  6.196103900052E+00
 O  -5.290504798337E-01  2.138924290142E+00  5.926502074948E+00
 H  -1.276117400102E+00  1.597408437123E+00  5.580471856640E+00
 O  -3.798951806188E+00  1.477226248457E+00  5.868311773683E+00
 H  -3.806957280941E+00  2.308487556470E+00  6.423833068405E+00
 H  -4.719396559260E+00  1.165915106264E+00  5.736151427926E+00
 H  -2.346206909902E-01  1.734919811933E+00  6.757820997775E+00
 O  -2.275340884789E+00 -8.802805475540E-01  5.822564048311E+00
 H  -2.722308614519E+00 -9.649366021970E-03  5.972882054323E+00
 H  -2.994195885650E+00 -1.520660925564E+00  5.957243386266E+00
 H   5.121674940206E+00 -1.399266397543E+00  6.235570295457E+00
 O   6.022107795661E+00 -1.376201751734E+00  5.840598782290E+00
 H   6.379337933932E+00 -2.289840251441E+00  5.935474327116E+00
 O   1.152489750946E+00 -7.844330735509E-01  6.044290398450E+00
 H   4.648696613327E-01 -1.326595906752E+00  5.568936984957E+00
 H   1.200339494300E+00  7.981362252097E-02  5.562224631464E+00
 O   6.880775422330E+00 -4.128333189738E+00  5.939098662598E+00
 H   1.718729578742E+00  5.197361378636E+00  6.660998258288E+00
 H   3.199083921452E-01  5.274968592199E+00  5.939440711917E+00
 O   3.325844668756E+00  2.198527252597E+00  5.935755164976E+00
 H   2.549707495174E+00  1.674989739832E+00  5.614891612864E+00
 H   3.791323800844E+00  1.661306195107E+00  6.595094529212E+00
 O  -7.135322840575E+00  1.510910654049E+01  5.910051383052E+00
 H  -7.689728781748E+00  1.445518247935E+01  6.401233845850E+00
 O  -2.177571584437E+00  7.861735349716E+00  5.934997088416E+00
 O  -2.035527045740E+00  7.711331080643E+00  4.454721974705E+00
 H  -3.105892624149E+00  8.286922216355E+00  6.042271174362E+00
 H  -1.837181689247E+00  6.230898218584E+00  6.182492178986E+00
  113
CERIA BULK                               E -1.7735393495924E+04 DE-2.0E-07(  5)
 O  -1.849070494168E+00  1.097679441779E+00  3.918938275278E+00
 O   1.315627269307E+01  5.484669181104E+00  9.289252803887E-01
 O   1.702282465297E+01  5.472925644513E+00  8.818403060657E-01
 O   1.808635077446E+00  1.038557614778E+00  4.120880701454E+00
 O   1.133174794920E+01  4.334245170379E+00  3.845895055794E+00
 O  -5.713276594307E+00  1.065821697039E+00  4.054557079788E+00
 O   1.325461614677E+01  3.229319462159E+00  2.418406314253E+00
 O   1.114253352041E+01  6.642984276024E+00  2.540149673922E+00
 CE  1.804926245046E+00 -1.047193261662E+00  3.124902510742E+00
 CE  2.049740215272E-03  2.180534145629E+00  3.208820224682E+00
 CE  3.749952535416E+00 -4.427156191360E+00  3.276654080095E+00
 CE  5.705010953920E+00 -1.033786533202E+00  3.267452304558E+00
 CE  3.783553329041E+00  2.186526780883E+00  3.268008150954E+00
 CE  7.528517963092E+00 -4.339935165286E+00  3.236733368825E+00
 CE -1.894585944018E+00 -1.088706346791E+00  3.221987746813E+00
 CE -3.769537790990E+00  2.154496180307E+00  3.239289815025E+00
 CE -1.021501354096E-02 -4.337663715036E+00  3.248964278322E+00
 O   5.744443597981E-03 -1.892598260958E-03  2.361356672185E+00
 O  -1.943896738208E+00  3.274201176626E+00  2.422010739047E+00
 O   1.883425394658E+01  4.368337116068E+00  4.114871458183E+00
 O   3.743848318171E+00 -6.513453628148E-02  2.462801865445E+00
 O   1.505283281042E+01  4.399085593899E+00  4.039851285337E+00
 O   1.696598234675E+01  3.305510749041E+00  2.455283647337E+00
 O  -3.800831734688E+00  1.639140718292E-02  2.445396127107E+00
 O   1.697552954534E+01  7.689901317622E+00  4.052741186484E+00
 O   1.325725835473E+01  7.592904138430E+00  3.867134347386E+00
 O   1.871382150442E+00 -1.089684808775E+00  8.387189064821E-01
 O  -7.321193302514E-03  2.192906974683E+00  8.610977111646E-01
 O   3.762336659189E+00 -4.356338319484E+00  8.654981078206E-01
 O   5.668320740988E+00 -1.063059655057E+00  8.744685647702E-01
 O   3.798525338836E+00  2.149782530340E+00  8.832914457515E-01
 O   1.893279578510E+01  6.584994621355E+00  2.478443442793E+00
 O  -1.908575230753E+00 -1.088554199359E+00  8.588297394428E-01
 O  -3.781060336816E+00  2.161501561049E+00  8.639864362630E-01
 O   1.515638570726E+01  6.530347271663E+00  2.403164345867E+00
 CE -1.509967442315E-02  4.797152969734E-03  1.046707077356E-03
 CE -1.884917647877E+00  3.261269721264E+00  2.460628096536E-02
 CE  1.882757843057E+00 -3.269377115898E+00  2.846773741128E-02
 CE  3.779048816567E+00  9.038164464940E-03  3.423783474622E-02
 CE  1.889732203259E+00  3.261295943157E+00  4.124424052816E-02
 CE  5.631901240404E+00 -3.242417314236E+00  5.032109280538E-02
 CE -3.779195804625E+00 -9.607644202907E-03  2.540897452754E-02
 CE -5.649304926271E+00  3.243627465101E+00  4.535862441479E-02
 CE -1.894446541866E+00 -3.261875713732E+00  4.335504110361E-02
 O  -1.889291975053E+00  1.084388851060E+00 -7.621669202660E-01
 O  -3.765776872735E+00  4.336716705225E+00 -7.607507520229E-01
 O  -1.532631464634E-02 -2.180285190994E+00 -7.535580724063E-01
 O   1.886425567685E+00  1.098026366112E+00 -7.492179293329E-01
 O   1.575590165037E-02  4.355294671074E+00 -7.539546525521E-01
 O   3.768603817167E+00 -2.167077546899E+00 -7.483462676565E-01
 O  -5.658569045479E+00  1.073047477783E+00 -7.618757526058E-01
 O  -7.545772415742E+00  4.337051415419E+00 -7.229343220577E-01
 O  -3.783041730949E+00 -2.195383878201E+00 -7.510223261006E-01
 O   0.000000000000E+00  0.000000000000E+00 -2.343480358560E+00
 O  -1.878498222588E+00  3.256560796359E+00 -2.343480358560E+00
 O   1.878498222593E+00 -3.256560796353E+00 -2.343480358560E+00
 O   3.770982643191E+00  8.219762642460E-03 -2.343480358560E+00
 O   1.892484420599E+00  3.264780559007E+00 -2.343480358560E+00
 O   5.649480865793E+00 -3.248341033711E+00 -2.343480358560E+00
 O  -3.770982643191E+00 -8.219762653443E-03 -2.343480358560E+00
 O  -5.649480865793E+00  3.248341033711E+00 -2.343480358560E+00
 O  -1.892484420604E+00 -3.264780559002E+00 -2.343480358560E+00
 CE -1.883160288593E+00  1.082780344569E+00 -3.124640478080E+00
 CE -3.761658511176E+00  4.339341140935E+00 -3.124640478080E+00
 CE -4.662066002358E-03 -2.173780451785E+00 -3.124640478080E+00
 CE  1.887822354597E+00  1.091000107218E+00 -3.124640478080E+00
 CE  9.324132006716E-03  4.347560903576E+00 -3.124640478080E+00
 CE  3.766320577190E+00 -2.165560689141E+00 -3.124640478080E+00
 CE -5.654142931828E+00  1.074560581908E+00 -3.124640478080E+00
 CE -7.532641154376E+00  4.331121378289E+00 -3.124640478080E+00
 CE -3.775644709197E+00 -2.182000214437E+00 -3.124640478080E+00
 O   1.883160288593E+00 -1.082780344569E+00 -3.905800597599E+00
 O   4.662066002358E-03  2.173780451785E+00 -3.905800597599E+00
 O   3.761658511176E+00 -4.339341140935E+00 -3.905800597599E+00
 O   5.654142931828E+00 -1.074560581908E+00 -3.905800597599E+00
 O   3.775644709202E+00  2.182000214438E+00 -3.905800597599E+00
 O   7.532641154376E+00 -4.331121378289E+00 -3.905800597599E+00
 O  -1.887822354597E+00 -1.091000107218E+00 -3.905800597599E+00
 O  -3.766320577193E+00  2.165560689140E+00 -3.905800597599E+00
 O  -9.324132007716E-03 -4.347560903577E+00 -3.905800597599E+00
 O  -4.865296376466E-01 -4.397173855774E+00  5.931641557820E+00
 H  -1.277844683352E+00 -4.893622242166E+00  5.586340719824E+00
 O   1.943277858690E+00 -5.819524181791E+00  6.721183588006E+00
 H   1.250814772901E+00 -5.386910441443E+00  7.248768664496E+00
 H   1.757987380923E+00 -5.572109789735E+00  5.762866658172E+00
 H  -7.805488206280E-01 -3.510066601419E+00  6.196103900052E+00
 O  -5.290504798337E-01  2.138924290142E+00  5.926502074948E+00
 H  -1.276117400102E+00  1.597408437123E+00  5.580471856640E+00
 O  -3.798951806188E+00  1.477226248457E+00  5.868311773683E+00
 H  -3.806957280941E+00  2.308487556470E+00  6.423833068405E+00
 H  -4.719396559260E+00  1.165915106264E+00  5.736151427926E+00
 H  -2.346206909902E-01  1.734919811933E+00  6.757820997775E+00
 O  -2.275340884789E+00 -8.802805475540E-01  5.822564048311E+00
 H  -2.722308614519E+00 -9.649366021970E-03  5.972882054323E+00
 H  -2.994195885650E+00 -1.520660925564E+00  5.957243386266E+00
 H   5.121674940206E+00 -1.399266397543E+00  6.235570295457E+00
 O   6.022107795661E+00 -1.376201751734E+00  5.840598782290E+00
 H   6.379337933932E+00 -2.289840251441E+00  5.935474327116E+00
 O   1.152489750946E+00 -7.844330735509E-01  6.044290398450E+00
 H   4.648696613327E-01 -1.326595906752E+00  5.568936984957E+00
 H   1.200339494300E+00  7.981362252097E-02  5.562224631464E+00
 O   6.880775422330E+00 -4.128333189738E+00  5.939098662598E+00
 H   1.718729578742E+00  5.197361378636E+00  6.660998258288E+00
 H   3.199083921452E-01  5.274968592199E+00  5.939440711917E+00
 O   3.325844668756E+00  2.198527252597E+00  5.935755164976E+00
 H   2.549707495174E+00  1.674989739832E+00  5.614891612864E+00
 H   3.791323800844E+00  1.661306195107E+00  6.595094529212E+00
 O  -7.135322840575E+00  1.510910654049E+01  5.910051383052E+00
 H  -7.689728781748E+00  1.445518247935E+01  6.401233845850E+00
 O  -2.177571584437E+00  7.861735349716E+00  5.934997088416E+00
 O  -2.035527045740E+00  7.711331080643E+00  4.454721974705E+00
 H  -3.105892624149E+00  8.286922216355E+00  6.042271174362E+00
 H  -1.837181689247E+00  6.230898218584E+00  6.182492178986E+00
