  114
CERIA BULK                              
 O  -1.956986028370E+00  1.136878166813E+00  3.991261208720E+00
 O   1.314723244986E+01  5.477130511829E+00  9.028676782260E-01
 O   1.695718835583E+01  5.468691871938E+00  8.982213419950E-01
 O   1.844135887537E+00  1.082614005137E+00  3.920714305355E+00
 O   1.127643364126E+01  4.353685003120E+00  4.092773232668E+00
 O  -5.607248394855E+00  1.143378426963E+00  4.098660708212E+00
 O   1.311060621600E+01  3.278815779452E+00  2.415721334668E+00
 O   1.118605101677E+01  6.574251799807E+00  2.499159493718E+00
 CE  1.824504709580E+00 -1.040278370140E+00  3.246435045193E+00
 CE -1.442916521400E-02  2.160002647540E+00  3.267743333008E+00
 CE  3.760655859012E+00 -4.427501727030E+00  3.201238962996E+00
 CE  5.719624473765E+00 -1.036844881412E+00  3.289598611130E+00
 CE  3.749249391982E+00  2.197064638445E+00  3.224645266343E+00
 CE  7.528448017846E+00 -4.352213749323E+00  3.225554137169E+00
 CE -1.897413486264E+00 -1.077841867813E+00  3.231763408307E+00
 CE -3.761541117448E+00  2.189654582274E+00  3.170501585712E+00
 CE  1.632670673000E-03 -4.355700283505E+00  3.269752487509E+00
 O  -4.122852211300E-02 -1.618051571600E-02  2.436932316128E+00
 O  -1.857584425478E+00  3.287722062166E+00  2.398021967715E+00
 O   1.881505138059E+01  4.318167750602E+00  4.049789459273E+00
 O   3.801685893026E+00 -9.867875533000E-02  2.522715733707E+00
 O   1.505608759129E+01  4.352802412739E+00  3.816260183862E+00
 O   1.695110844695E+01  3.266979986129E+00  2.389963078142E+00
 O  -3.788096285889E+00  8.074773147000E-03  2.413082828022E+00
 O   1.694284081383E+01  7.660329906619E+00  4.120009478983E+00
 O   1.317152147736E+01  7.631155681704E+00  3.963862287440E+00
 O   1.872291210551E+00 -1.069212432708E+00  8.905555752580E-01
 O  -6.912960597000E-03  2.157364427423E+00  8.608740896360E-01
 O   3.752403300356E+00 -4.354958487935E+00  8.637410280100E-01
 O   5.653190470188E+00 -1.084995953799E+00  8.775329938100E-01
 O   3.749976908013E+00  2.144753392915E+00  8.988364751680E-01
 O   1.887870451998E+01  6.577162554096E+00  2.506821122624E+00
 O  -1.896340524154E+00 -1.079602382069E+00  8.580105700910E-01
 O  -3.743986378004E+00  2.174856346891E+00  8.444563862130E-01
 O   1.508502060456E+01  6.578319605695E+00  2.435433750919E+00
 CE -5.782514906000E-03  6.031566504000E-03  2.722682739600E-02
 CE -1.872375292538E+00  3.259912221612E+00  8.666024058000E-03
 CE  1.878986418643E+00 -3.255419370552E+00  4.384922309800E-02
 CE  3.763618031937E+00 -5.148400238000E-03  4.955006023400E-02
 CE  1.871799325613E+00  3.259580270867E+00  4.515950151400E-02
 CE  5.635111595491E+00 -3.247122619496E+00  4.685613872600E-02
 CE -3.764994103525E+00 -5.595898548000E-03  1.645916727800E-02
 CE -5.637393902820E+00  3.268065072517E+00  3.434728105900E-02
 CE -1.876849930299E+00 -3.255093041516E+00  4.734413860300E-02
 O  -1.879525185887E+00  1.086921827339E+00 -7.699450291810E-01
 O  -3.763868737803E+00  4.359582898955E+00 -7.556181861800E-01
 O   1.897578197000E-03 -2.175407176323E+00 -7.474628561060E-01
 O   1.886640352486E+00  1.090299475554E+00 -7.518867348410E-01
 O   1.027835892800E-02  4.358992132353E+00 -7.467426540800E-01
 O   3.756269623825E+00 -2.167559522018E+00 -7.427062995840E-01
 O  -5.651206740372E+00  1.089366312007E+00 -7.485166216010E-01
 O  -7.521716366243E+00  4.351066843415E+00 -7.251967674870E-01
 O  -3.764788579453E+00 -2.183315926475E+00 -7.568586274160E-01
 O   0.000000000000E+00  0.000000000000E+00 -2.343480358560E+00
 O  -1.878832259752E+00  3.262740713017E+00 -2.343480358560E+00
 O   1.878832259757E+00 -3.262740713012E+00 -2.343480358560E+00
 O   3.760709337688E+00  1.761896831000E-03 -2.343480358560E+00
 O   1.881877077931E+00  3.264502609852E+00 -2.343480358560E+00
 O   5.639541597459E+00 -3.260978816181E+00 -2.343480358560E+00
 O  -3.760709337688E+00 -1.761896841000E-03 -2.343480358560E+00
 O  -5.639541597459E+00  3.260978816181E+00 -2.343480358560E+00
 O  -1.881877077936E+00 -3.264502609847E+00 -2.343480358560E+00
 CE -1.879847199148E+00  1.086992938727E+00 -3.124640478080E+00
 CE -3.758679458897E+00  4.349733651748E+00 -3.124640478080E+00
 CE -1.014939393000E-03 -2.175747774288E+00 -3.124640478080E+00
 CE  1.880862138538E+00  1.088754835562E+00 -3.124640478080E+00
 CE  2.029878786000E-03  4.351495548580E+00 -3.124640478080E+00
 CE  3.759694398297E+00 -2.173985877455E+00 -3.124640478080E+00
 CE -5.640556536880E+00  1.085231041879E+00 -3.124640478080E+00
 CE -7.519388796591E+00  4.347971754917E+00 -3.124640478080E+00
 CE -3.761724277085E+00 -2.177509671126E+00 -3.124640478080E+00
 O   1.879847199148E+00 -1.086992938727E+00 -3.905800597599E+00
 O   1.014939393000E-03  2.175747774288E+00 -3.905800597599E+00
 O   3.758679458897E+00 -4.349733651748E+00 -3.905800597599E+00
 O   5.640556536880E+00 -1.085231041879E+00 -3.905800597599E+00
 O   3.761724277089E+00  2.177509671127E+00 -3.905800597599E+00
 O   7.519388796591E+00 -4.347971754917E+00 -3.905800597599E+00
 O  -1.880862138538E+00 -1.088754835562E+00 -3.905800597599E+00
 O  -3.759694398300E+00  2.173985877454E+00 -3.905800597599E+00
 O  -2.029878787000E-03 -4.351495548581E+00 -3.905800597599E+00
 O  -5.637829936463E+00  7.713215760513E+00  6.721566256603E+00
 H  -5.535114426383E+00  7.727271216362E+00  5.712602899278E+00
 H   8.613296408790E-01 -1.805578405158E+00  7.081399000645E+00
 H  -7.237374522878E+00  2.299204739645E+00  6.354574914068E+00
 O  -8.029417316408E+00  2.402142593883E+00  5.771809312225E+00
 H  -8.684798425881E+00  1.700510402626E+00  5.907262917120E+00
 H  -9.750737957312E+00  8.956875840506E+00  6.118548803478E+00
 O  -5.100366107641E+00 -8.675501930480E-01  6.101169911096E+00
 H  -1.098316903581E+01  8.215835999495E+00  6.720714215650E+00
 O  -5.464653333181E+00  2.324342378569E+00  6.471731780364E+00
 H  -5.454008630521E+00  1.722205188287E+00  5.663626156741E+00
 H  -5.090153397801E+00  1.827382522399E+00  7.216128114799E+00
 O  -7.919628735800E-02  1.749042077754E+00  5.973323736040E+00
 H   4.782524565260E-01  1.082806323072E+00  6.399852602812E+00
 H  -1.737423031600E-02  2.597868195051E+00  6.492869747665E+00
 H  -1.955955305383E+00  2.798507964810E-01  5.725260117860E+00
 O  -2.205361321806E+00 -6.517381943690E-01  5.934201157207E+00
 H  -1.487832965798E+00 -1.040116820833E+00  6.494415556252E+00
 O  -6.014473440026E+00  5.181247027592E+00  5.933950720040E+00
 H  -5.716046621615E+00  4.319690493708E+00  6.294769889846E+00
 H  -5.741937454292E+00  5.930204771646E+00  6.520849290533E+00
 O  -8.883539382978E+00  5.688320482270E+00  5.831541384668E+00
 H  -7.961422805430E+00  5.343238344229E+00  5.915944022863E+00
 H  -8.827452338396E+00  6.660200487417E+00  5.757666664935E+00
 O  -5.663229777056E+00  1.407788781241E+01  6.682456095869E+00
 H  -5.546448590389E+00  1.415904626030E+01  5.676695674846E+00
 H  -4.869560913606E+00  1.449495117778E+01  7.062488296303E+00
 O  -7.923119441703E+00  1.528519568883E+01  5.934737981647E+00
 H  -7.221890386102E+00  1.481275782634E+01  6.454639549234E+00
 H  -8.663113872188E+00  1.467989288420E+01  5.700234732999E+00
 O  -3.117279019857E+00  8.829033577148E+00  5.744787083440E+00
 O  -1.817509016520E+00  7.623843091867E+00  4.464375039035E+00
 H  -2.313754493315E+00  9.363770820898E+00  5.900231915439E+00
 H  -1.970905326834E+00  7.077165430773E+00  5.276668141916E+00
  114
CERIA BULK                              
 O  -1.956986028370E+00  1.136878166813E+00  3.991261208720E+00
 O   1.314723244986E+01  5.477130511829E+00  9.028676782261E-01
 O   1.695718835583E+01  5.468691871938E+00  8.982213419946E-01
 O   1.844135887537E+00  1.082614005138E+00  3.920714305355E+00
 O   1.127643364126E+01  4.353685003120E+00  4.092773232668E+00
 O  -5.607248394855E+00  1.143378426963E+00  4.098660708212E+00
 O   1.311060621600E+01  3.278815779452E+00  2.415721334668E+00
 O   1.118605101677E+01  6.574251799806E+00  2.499159493718E+00
 CE  1.824504709580E+00 -1.040278370140E+00  3.246435045193E+00
 CE -1.442916521381E-02  2.160002647540E+00  3.267743333008E+00
 CE  3.760655859012E+00 -4.427501727030E+00  3.201238962996E+00
 CE  5.719624473765E+00 -1.036844881412E+00  3.289598611130E+00
 CE  3.749249391982E+00  2.197064638445E+00  3.224645266343E+00
 CE  7.528448017846E+00 -4.352213749323E+00  3.225554137169E+00
 CE -1.897413486264E+00 -1.077841867813E+00  3.231763408307E+00
 CE -3.761541117448E+00  2.189654582274E+00  3.170501585712E+00
 CE  1.632670673321E-03 -4.355700283505E+00  3.269752487509E+00
 O  -4.122852211327E-02 -1.618051571645E-02  2.436932316128E+00
 O  -1.857584425478E+00  3.287722062166E+00  2.398021967715E+00
 O   1.881505138059E+01  4.318167750602E+00  4.049789459273E+00
 O   3.801685893026E+00 -9.867875532966E-02  2.522715733707E+00
 O   1.505608759129E+01  4.352802412739E+00  3.816260183863E+00
 O   1.695110844695E+01  3.266979986129E+00  2.389963078142E+00
 O  -3.788096285889E+00  8.074773147381E-03  2.413082828022E+00
 O   1.694284081383E+01  7.660329906619E+00  4.120009478983E+00
 O   1.317152147736E+01  7.631155681704E+00  3.963862287440E+00
 O   1.872291210551E+00 -1.069212432708E+00  8.905555752580E-01
 O  -6.912960596707E-03  2.157364427423E+00  8.608740896364E-01
 O   3.752403300356E+00 -4.354958487935E+00  8.637410280103E-01
 O   5.653190470188E+00 -1.084995953799E+00  8.775329938101E-01
 O   3.749976908013E+00  2.144753392915E+00  8.988364751677E-01
 O   1.887870451998E+01  6.577162554096E+00  2.506821122624E+00
 O  -1.896340524154E+00 -1.079602382069E+00  8.580105700914E-01
 O  -3.743986378004E+00  2.174856346891E+00  8.444563862125E-01
 O   1.508502060456E+01  6.578319605695E+00  2.435433750919E+00
 CE -5.782514906246E-03  6.031566504414E-03  2.722682739643E-02
 CE -1.872375292538E+00  3.259912221612E+00  8.666024058216E-03
 CE  1.878986418643E+00 -3.255419370552E+00  4.384922309797E-02
 CE  3.763618031937E+00 -5.148400238074E-03  4.955006023414E-02
 CE  1.871799325613E+00  3.259580270867E+00  4.515950151365E-02
 CE  5.635111595491E+00 -3.247122619496E+00  4.685613872578E-02
 CE -3.764994103525E+00 -5.595898547504E-03  1.645916727846E-02
 CE -5.637393902820E+00  3.268065072517E+00  3.434728105875E-02
 CE -1.876849930299E+00 -3.255093041516E+00  4.734413860339E-02
 O  -1.879525185887E+00  1.086921827339E+00 -7.699450291815E-01
 O  -3.763868737803E+00  4.359582898955E+00 -7.556181861798E-01
 O   1.897578197239E-03 -2.175407176323E+00 -7.474628561058E-01
 O   1.886640352486E+00  1.090299475554E+00 -7.518867348409E-01
 O   1.027835892797E-02  4.358992132353E+00 -7.467426540801E-01
 O   3.756269623825E+00 -2.167559522018E+00 -7.427062995843E-01
 O  -5.651206740372E+00  1.089366312007E+00 -7.485166216011E-01
 O  -7.521716366243E+00  4.351066843415E+00 -7.251967674872E-01
 O  -3.764788579453E+00 -2.183315926475E+00 -7.568586274161E-01
 O   0.000000000000E+00  0.000000000000E+00 -2.343480358560E+00
 O  -1.878832259752E+00  3.262740713017E+00 -2.343480358560E+00
 O   1.878832259757E+00 -3.262740713012E+00 -2.343480358560E+00
 O   3.760709337688E+00  1.761896830537E-03 -2.343480358560E+00
 O   1.881877077931E+00  3.264502609852E+00 -2.343480358560E+00
 O   5.639541597459E+00 -3.260978816181E+00 -2.343480358560E+00
 O  -3.760709337688E+00 -1.761896840557E-03 -2.343480358560E+00
 O  -5.639541597459E+00  3.260978816181E+00 -2.343480358560E+00
 O  -1.881877077936E+00 -3.264502609847E+00 -2.343480358560E+00
 CE -1.879847199148E+00  1.086992938727E+00 -3.124640478080E+00
 CE -3.758679458897E+00  4.349733651748E+00 -3.124640478080E+00
 CE -1.014939393267E-03 -2.175747774288E+00 -3.124640478080E+00
 CE  1.880862138538E+00  1.088754835562E+00 -3.124640478080E+00
 CE  2.029878785538E-03  4.351495548580E+00 -3.124640478080E+00
 CE  3.759694398297E+00 -2.173985877455E+00 -3.124640478080E+00
 CE -5.640556536880E+00  1.085231041879E+00 -3.124640478080E+00
 CE -7.519388796591E+00  4.347971754917E+00 -3.124640478080E+00
 CE -3.761724277085E+00 -2.177509671126E+00 -3.124640478080E+00
 O   1.879847199148E+00 -1.086992938727E+00 -3.905800597599E+00
 O   1.014939393267E-03  2.175747774288E+00 -3.905800597599E+00
 O   3.758679458897E+00 -4.349733651748E+00 -3.905800597599E+00
 O   5.640556536880E+00 -1.085231041879E+00 -3.905800597599E+00
 O   3.761724277089E+00  2.177509671127E+00 -3.905800597599E+00
 O   7.519388796591E+00 -4.347971754917E+00 -3.905800597599E+00
 O  -1.880862138538E+00 -1.088754835562E+00 -3.905800597599E+00
 O  -3.759694398300E+00  2.173985877454E+00 -3.905800597599E+00
 O  -2.029878786535E-03 -4.351495548581E+00 -3.905800597599E+00
 O  -5.637829936463E+00  7.713215760513E+00  6.721566256603E+00
 H  -5.535114426383E+00  7.727271216362E+00  5.712602899277E+00
 H   8.613296408793E-01 -1.805578405158E+00  7.081399000645E+00
 H  -7.237374522878E+00  2.299204739645E+00  6.354574914068E+00
 O  -8.029417316408E+00  2.402142593883E+00  5.771809312225E+00
 H  -8.684798425881E+00  1.700510402626E+00  5.907262917120E+00
 H  -9.750737957312E+00  8.956875840506E+00  6.118548803478E+00
 O  -5.100366107641E+00 -8.675501930482E-01  6.101169911096E+00
 H  -1.098316903581E+01  8.215835999495E+00  6.720714215651E+00
 O  -5.464653333181E+00  2.324342378569E+00  6.471731780364E+00
 H  -5.454008630521E+00  1.722205188287E+00  5.663626156741E+00
 H  -5.090153397801E+00  1.827382522399E+00  7.216128114799E+00
 O  -7.919628735794E-02  1.749042077754E+00  5.973323736040E+00
 H   4.782524565263E-01  1.082806323072E+00  6.399852602812E+00
 H  -1.737423031609E-02  2.597868195051E+00  6.492869747665E+00
 H  -1.955955305383E+00  2.798507964811E-01  5.725260117859E+00
 O  -2.205361321806E+00 -6.517381943687E-01  5.934201157208E+00
 H  -1.487832965798E+00 -1.040116820833E+00  6.494415556252E+00
 O  -6.014473440026E+00  5.181247027592E+00  5.933950720040E+00
 H  -5.716046621615E+00  4.319690493708E+00  6.294769889846E+00
 H  -5.741937454292E+00  5.930204771646E+00  6.520849290532E+00
 O  -8.883539382978E+00  5.688320482269E+00  5.831541384668E+00
 H  -7.961422805430E+00  5.343238344229E+00  5.915944022863E+00
 H  -8.827452338396E+00  6.660200487416E+00  5.757666664935E+00
 O  -5.663229777057E+00  1.407788781241E+01  6.682456095870E+00
 H  -5.546448590390E+00  1.415904626030E+01  5.676695674846E+00
 H  -4.869560913606E+00  1.449495117779E+01  7.062488296303E+00
 O  -7.923119441703E+00  1.528519568883E+01  5.934737981647E+00
 H  -7.221890386102E+00  1.481275782634E+01  6.454639549234E+00
 H  -8.663113872188E+00  1.467989288421E+01  5.700234732999E+00
 O  -3.117279019857E+00  8.829033577148E+00  5.744787083440E+00
 O  -1.817509016520E+00  7.623843091866E+00  4.464375039035E+00
 H  -2.313754493315E+00  9.363770820898E+00  5.900231915439E+00
 H  -1.970905326834E+00  7.077165430774E+00  5.276668141916E+00
  114
CERIA BULK                               E -1.7736025621617E+04 DE-1.4E-07(  5)
 O  -1.956997293197E+00  1.136904255761E+00  3.991211344721E+00
 O   1.314724939636E+01  5.477101436103E+00  9.028407943544E-01
 O   1.695718996311E+01  5.468691963872E+00  8.982306906204E-01
 O   1.844113061949E+00  1.082647058728E+00  3.920749395353E+00
 O   1.127642599880E+01  4.353671281251E+00  4.092793189235E+00
 O  -5.607233894214E+00  1.143343246257E+00  4.098605889418E+00
 O   1.311062114172E+01  3.278798512619E+00  2.415701142399E+00
 O   1.118609217528E+01  6.574238991718E+00  2.499172326129E+00
 CE  1.824523322431E+00 -1.040298260831E+00  3.246486049985E+00
 CE -1.442616123561E-02  2.160019638571E+00  3.267719975712E+00
 CE  3.760656029151E+00 -4.427495624240E+00  3.201228870156E+00
 CE  5.719640899533E+00 -1.036881595195E+00  3.289575897659E+00
 CE  3.749269815448E+00  2.197060239273E+00  3.224665739637E+00
 CE  7.528455246375E+00 -4.352211033272E+00  3.225534324076E+00
 CE -1.897436276171E+00 -1.077735502757E+00  3.231762522052E+00
 CE -3.761547616374E+00  2.189662973013E+00  3.170500783579E+00
 CE  1.617006922991E-03 -4.355696108558E+00  3.269764112771E+00
 O  -4.123338299932E-02 -1.617968042167E-02  2.436954148422E+00
 O  -1.857617880616E+00  3.287736594279E+00  2.398010719300E+00
 O   1.881506054365E+01  4.318172084751E+00  4.049815971064E+00
 O   3.801655281888E+00 -9.868224891601E-02  2.522778828960E+00
 O   1.505605111021E+01  4.352787443322E+00  3.816270473429E+00
 O   1.695109197659E+01  3.267016409742E+00  2.390007557279E+00
 O  -3.788078211507E+00  8.090240133141E-03  2.413029297943E+00
 O   1.694286044268E+01  7.660346162272E+00  4.120045542812E+00
 O   1.317153761188E+01  7.631166444980E+00  3.963896688213E+00
 O   1.872246654992E+00 -1.069213692365E+00  8.905643900476E-01
 O  -6.905783466204E-03  2.157392721395E+00  8.608681346800E-01
 O   3.752415783687E+00 -4.354936368543E+00  8.637561602910E-01
 O   5.653142468463E+00 -1.084984431545E+00  8.775728218386E-01
 O   3.750015291732E+00  2.144731132769E+00  8.988527912500E-01
 O   1.887870154124E+01  6.577165578293E+00  2.506857073060E+00
 O  -1.896333301917E+00 -1.079601730791E+00  8.579822071460E-01
 O  -3.744024722739E+00  2.174869779196E+00  8.444023929717E-01
 O   1.508504336128E+01  6.578355080241E+00  2.435424543802E+00
 CE -5.797965537716E-03  6.039285699554E-03  2.723404332965E-02
 CE -1.872372140430E+00  3.259863365018E+00  8.700706298178E-03
 CE  1.878991122236E+00 -3.255432677159E+00  4.385997336598E-02
 CE  3.763587911325E+00 -5.142237973620E-03  4.957031382497E-02
 CE  1.871797694801E+00  3.259602455159E+00  4.516084759343E-02
 CE  5.635115965698E+00 -3.247127098425E+00  4.683057035971E-02
 CE -3.765028665377E+00 -5.595753218512E-03  1.643969984660E-02
 CE -5.637393104427E+00  3.268061262375E+00  3.432046826845E-02
 CE -1.876832006346E+00 -3.255080554819E+00  4.735267515196E-02
 O  -1.879530024663E+00  1.086910543859E+00 -7.699416447981E-01
 O  -3.763863093555E+00  4.359593867900E+00 -7.555939189382E-01
 O   1.900319286837E-03 -2.175414025180E+00 -7.474907995045E-01
 O   1.886644964214E+00  1.090295194026E+00 -7.518645728933E-01
 O   1.025822738721E-02  4.359002078362E+00 -7.467202732910E-01
 O   3.756271328438E+00 -2.167562460676E+00 -7.427104513935E-01
 O  -5.651212036879E+00  1.089354318356E+00 -7.485072238823E-01
 O  -7.521711562491E+00  4.351059497153E+00 -7.252359540123E-01
 O  -3.764799861270E+00 -2.183315948371E+00 -7.568460183805E-01
 O   0.000000000000E+00  0.000000000000E+00 -2.343480358560E+00
 O  -1.878832145281E+00  3.262740361979E+00 -2.343480358560E+00
 O   1.878832145286E+00 -3.262740361974E+00 -2.343480358560E+00
 O   3.760710038999E+00  1.762432428362E-03 -2.343480358560E+00
 O   1.881877893712E+00  3.264502794412E+00 -2.343480358560E+00
 O   5.639542184299E+00 -3.260977929545E+00 -2.343480358560E+00
 O  -3.760710038999E+00 -1.762432438382E-03 -2.343480358560E+00
 O  -5.639542184299E+00  3.260977929545E+00 -2.343480358560E+00
 O  -1.881877893717E+00 -3.264502794407E+00 -2.343480358560E+00
 CE -1.879847394762E+00  1.086992643182E+00 -3.124640478080E+00
 CE -3.758679540040E+00  4.349733005164E+00 -3.124640478080E+00
 CE -1.015249477145E-03 -2.175747718795E+00 -3.124640478080E+00
 CE  1.880862644236E+00  1.088755075614E+00 -3.124640478080E+00
 CE  2.030498953294E-03  4.351495437594E+00 -3.124640478080E+00
 CE  3.759694789524E+00 -2.173985286364E+00 -3.124640478080E+00
 CE -5.640557433805E+00  1.085230210735E+00 -3.124640478080E+00
 CE -7.519389579045E+00  4.347970572735E+00 -3.124640478080E+00
 CE -3.761725288479E+00 -2.177510151231E+00 -3.124640478080E+00
 O   1.879847394762E+00 -1.086992643182E+00 -3.905800597599E+00
 O   1.015249477145E-03  2.175747718795E+00 -3.905800597599E+00
 O   3.758679540040E+00 -4.349733005164E+00 -3.905800597599E+00
 O   5.640557433805E+00 -1.085230210735E+00 -3.905800597599E+00
 O   3.761725288483E+00  2.177510151232E+00 -3.905800597599E+00
 O   7.519389579045E+00 -4.347970572735E+00 -3.905800597599E+00
 O  -1.880862644236E+00 -1.088755075614E+00 -3.905800597599E+00
 O  -3.759694789527E+00  2.173985286364E+00 -3.905800597599E+00
 O  -2.030498954291E-03 -4.351495437595E+00 -3.905800597599E+00
 O  -5.637851192169E+00  7.713196012012E+00  6.721557839977E+00
 H  -5.535159287181E+00  7.727250137335E+00  5.712581226472E+00
 H   8.613055480218E-01 -1.805586377419E+00  7.081387034747E+00
 H  -7.237463097186E+00  2.299299946279E+00  6.354540792087E+00
 O  -8.029498691740E+00  2.402197848894E+00  5.771850328361E+00
 H  -8.684678045806E+00  1.700353728353E+00  5.907263489767E+00
 H  -9.750746329189E+00  8.956878700929E+00  6.118552730914E+00
 O  -5.100387443630E+00 -8.675723340459E-01  6.101162432571E+00
 H  -1.098318564175E+01  8.215831591937E+00  6.720709263429E+00
 O  -5.464595142997E+00  2.324330669109E+00  6.471651541835E+00
 H  -5.453926663921E+00  1.722153503339E+00  5.663596736865E+00
 H  -5.090128205291E+00  1.827526462241E+00  7.216254674578E+00
 O  -7.938797050117E-02  1.748937266018E+00  5.973340838242E+00
 H   4.783938539597E-01  1.082868783514E+00  6.399747760457E+00
 H  -1.743175500747E-02  2.597799031128E+00  6.492837813919E+00
 H  -1.955763883216E+00  2.798776045928E-01  5.725369651720E+00
 O  -2.205366164286E+00 -6.517188508987E-01  5.934201167266E+00
 H  -1.487834090163E+00 -1.040208005572E+00  6.494409317411E+00
 O  -6.014458420993E+00  5.181240266364E+00  5.933953137580E+00
 H  -5.716016024412E+00  4.319705706066E+00  6.294788931468E+00
 H  -5.741933746932E+00  5.930256097425E+00  6.520813026861E+00
 O  -8.883522730824E+00  5.688314496299E+00  5.831516702885E+00
 H  -7.961413202617E+00  5.343289332570E+00  5.916002733055E+00
 H  -8.827442096399E+00  6.660188532784E+00  5.757636621124E+00
 O  -5.663219366640E+00  1.407787678775E+01  6.682449930427E+00
 H  -5.546458390351E+00  1.415905334163E+01  5.676684885793E+00
 H  -4.869563862289E+00  1.449491891517E+01  7.062511797201E+00
 O  -7.923130671623E+00  1.528519240396E+01  5.934772660128E+00
 H  -7.221886988251E+00  1.481274080164E+01  6.454636894933E+00
 H  -8.663092439917E+00  1.467987600176E+01  5.700217287048E+00
 O  -3.117258053000E+00  8.829024550812E+00  5.744800501870E+00
 O  -1.817475270636E+00  7.623850591856E+00  4.464362219960E+00
 H  -2.313782390479E+00  9.363801572201E+00  5.900280031217E+00
 H  -1.970921403705E+00  7.077172391569E+00  5.276670877215E+00
  114
CERIA BULK                               E -1.7736025510383E+04 DE-7.2E-08(  4)
 O  -1.956997293197E+00  1.136904255761E+00  3.991211344721E+00
 O   1.314724939636E+01  5.477101436103E+00  9.028407943544E-01
 O   1.695718996311E+01  5.468691963872E+00  8.982306906204E-01
 O   1.844113061949E+00  1.082647058728E+00  3.920749395353E+00
 O   1.127642599880E+01  4.353671281251E+00  4.092793189235E+00
 O  -5.607233894214E+00  1.143343246257E+00  4.098605889418E+00
 O   1.311062114172E+01  3.278798512619E+00  2.415701142399E+00
 O   1.118609217528E+01  6.574238991718E+00  2.499172326129E+00
 CE  1.824523322431E+00 -1.040298260831E+00  3.246486049985E+00
 CE -1.442616123561E-02  2.160019638571E+00  3.267719975712E+00
 CE  3.760656029151E+00 -4.427495624240E+00  3.201228870156E+00
 CE  5.719640899533E+00 -1.036881595195E+00  3.289575897659E+00
 CE  3.749269815448E+00  2.197060239273E+00  3.224665739637E+00
 CE  7.528455246375E+00 -4.352211033272E+00  3.225534324076E+00
 CE -1.897436276171E+00 -1.077735502757E+00  3.231762522052E+00
 CE -3.761547616374E+00  2.189662973013E+00  3.170500783579E+00
 CE  1.617006922991E-03 -4.355696108558E+00  3.269764112771E+00
 O  -4.123338299932E-02 -1.617968042167E-02  2.436954148422E+00
 O  -1.857617880616E+00  3.287736594279E+00  2.398010719300E+00
 O   1.881506054365E+01  4.318172084751E+00  4.049815971064E+00
 O   3.801655281888E+00 -9.868224891601E-02  2.522778828960E+00
 O   1.505605111021E+01  4.352787443322E+00  3.816270473429E+00
 O   1.695109197659E+01  3.267016409742E+00  2.390007557279E+00
 O  -3.788078211507E+00  8.090240133141E-03  2.413029297943E+00
 O   1.694286044268E+01  7.660346162272E+00  4.120045542812E+00
 O   1.317153761188E+01  7.631166444980E+00  3.963896688213E+00
 O   1.872246654992E+00 -1.069213692365E+00  8.905643900476E-01
 O  -6.905783466204E-03  2.157392721395E+00  8.608681346800E-01
 O   3.752415783687E+00 -4.354936368543E+00  8.637561602910E-01
 O   5.653142468463E+00 -1.084984431545E+00  8.775728218386E-01
 O   3.750015291732E+00  2.144731132769E+00  8.988527912500E-01
 O   1.887870154124E+01  6.577165578293E+00  2.506857073060E+00
 O  -1.896333301917E+00 -1.079601730791E+00  8.579822071460E-01
 O  -3.744024722739E+00  2.174869779196E+00  8.444023929717E-01
 O   1.508504336128E+01  6.578355080241E+00  2.435424543802E+00
 CE -5.797965537716E-03  6.039285699554E-03  2.723404332965E-02
 CE -1.872372140430E+00  3.259863365018E+00  8.700706298178E-03
 CE  1.878991122236E+00 -3.255432677159E+00  4.385997336598E-02
 CE  3.763587911325E+00 -5.142237973620E-03  4.957031382497E-02
 CE  1.871797694801E+00  3.259602455159E+00  4.516084759343E-02
 CE  5.635115965698E+00 -3.247127098425E+00  4.683057035971E-02
 CE -3.765028665377E+00 -5.595753218512E-03  1.643969984660E-02
 CE -5.637393104427E+00  3.268061262375E+00  3.432046826845E-02
 CE -1.876832006346E+00 -3.255080554819E+00  4.735267515196E-02
 O  -1.879530024663E+00  1.086910543859E+00 -7.699416447981E-01
 O  -3.763863093555E+00  4.359593867900E+00 -7.555939189382E-01
 O   1.900319286837E-03 -2.175414025180E+00 -7.474907995045E-01
 O   1.886644964214E+00  1.090295194026E+00 -7.518645728933E-01
 O   1.025822738721E-02  4.359002078362E+00 -7.467202732910E-01
 O   3.756271328438E+00 -2.167562460676E+00 -7.427104513935E-01
 O  -5.651212036879E+00  1.089354318356E+00 -7.485072238823E-01
 O  -7.521711562491E+00  4.351059497153E+00 -7.252359540123E-01
 O  -3.764799861270E+00 -2.183315948371E+00 -7.568460183805E-01
 O   0.000000000000E+00  0.000000000000E+00 -2.343480358560E+00
 O  -1.878832145281E+00  3.262740361979E+00 -2.343480358560E+00
 O   1.878832145286E+00 -3.262740361974E+00 -2.343480358560E+00
 O   3.760710038999E+00  1.762432428362E-03 -2.343480358560E+00
 O   1.881877893712E+00  3.264502794412E+00 -2.343480358560E+00
 O   5.639542184299E+00 -3.260977929545E+00 -2.343480358560E+00
 O  -3.760710038999E+00 -1.762432438382E-03 -2.343480358560E+00
 O  -5.639542184299E+00  3.260977929545E+00 -2.343480358560E+00
 O  -1.881877893717E+00 -3.264502794407E+00 -2.343480358560E+00
 CE -1.879847394762E+00  1.086992643182E+00 -3.124640478080E+00
 CE -3.758679540040E+00  4.349733005164E+00 -3.124640478080E+00
 CE -1.015249477145E-03 -2.175747718795E+00 -3.124640478080E+00
 CE  1.880862644236E+00  1.088755075614E+00 -3.124640478080E+00
 CE  2.030498953294E-03  4.351495437594E+00 -3.124640478080E+00
 CE  3.759694789524E+00 -2.173985286364E+00 -3.124640478080E+00
 CE -5.640557433805E+00  1.085230210735E+00 -3.124640478080E+00
 CE -7.519389579045E+00  4.347970572735E+00 -3.124640478080E+00
 CE -3.761725288479E+00 -2.177510151231E+00 -3.124640478080E+00
 O   1.879847394762E+00 -1.086992643182E+00 -3.905800597599E+00
 O   1.015249477145E-03  2.175747718795E+00 -3.905800597599E+00
 O   3.758679540040E+00 -4.349733005164E+00 -3.905800597599E+00
 O   5.640557433805E+00 -1.085230210735E+00 -3.905800597599E+00
 O   3.761725288483E+00  2.177510151232E+00 -3.905800597599E+00
 O   7.519389579045E+00 -4.347970572735E+00 -3.905800597599E+00
 O  -1.880862644236E+00 -1.088755075614E+00 -3.905800597599E+00
 O  -3.759694789527E+00  2.173985286364E+00 -3.905800597599E+00
 O  -2.030498954291E-03 -4.351495437595E+00 -3.905800597599E+00
 O  -5.637851192169E+00  7.713196012012E+00  6.721557839977E+00
 H  -5.535159287181E+00  7.727250137335E+00  5.712581226472E+00
 H   8.613055480218E-01 -1.805586377419E+00  7.081387034747E+00
 H  -7.237463097186E+00  2.299299946279E+00  6.354540792087E+00
 O  -8.029498691740E+00  2.402197848894E+00  5.771850328361E+00
 H  -8.684678045806E+00  1.700353728353E+00  5.907263489767E+00
 H  -9.750746329189E+00  8.956878700929E+00  6.118552730914E+00
 O  -5.100387443630E+00 -8.675723340459E-01  6.101162432571E+00
 H  -1.098318564175E+01  8.215831591937E+00  6.720709263429E+00
 O  -5.464595142997E+00  2.324330669109E+00  6.471651541835E+00
 H  -5.453926663921E+00  1.722153503339E+00  5.663596736865E+00
 H  -5.090128205291E+00  1.827526462241E+00  7.216254674578E+00
 O  -7.938797050117E-02  1.748937266018E+00  5.973340838242E+00
 H   4.783938539597E-01  1.082868783514E+00  6.399747760457E+00
 H  -1.743175500747E-02  2.597799031128E+00  6.492837813919E+00
 H  -1.955763883216E+00  2.798776045928E-01  5.725369651720E+00
 O  -2.205366164286E+00 -6.517188508987E-01  5.934201167266E+00
 H  -1.487834090163E+00 -1.040208005572E+00  6.494409317411E+00
 O  -6.014458420993E+00  5.181240266364E+00  5.933953137580E+00
 H  -5.716016024412E+00  4.319705706066E+00  6.294788931468E+00
 H  -5.741933746932E+00  5.930256097425E+00  6.520813026861E+00
 O  -8.883522730824E+00  5.688314496299E+00  5.831516702885E+00
 H  -7.961413202617E+00  5.343289332570E+00  5.916002733055E+00
 H  -8.827442096399E+00  6.660188532784E+00  5.757636621124E+00
 O  -5.663219366640E+00  1.407787678775E+01  6.682449930427E+00
 H  -5.546458390351E+00  1.415905334163E+01  5.676684885793E+00
 H  -4.869563862289E+00  1.449491891517E+01  7.062511797201E+00
 O  -7.923130671623E+00  1.528519240396E+01  5.934772660128E+00
 H  -7.221886988251E+00  1.481274080164E+01  6.454636894933E+00
 H  -8.663092439917E+00  1.467987600176E+01  5.700217287048E+00
 O  -3.117258053000E+00  8.829024550812E+00  5.744800501870E+00
 O  -1.817475270636E+00  7.623850591856E+00  4.464362219960E+00
 H  -2.313782390479E+00  9.363801572201E+00  5.900280031217E+00
 H  -1.970921403705E+00  7.077172391569E+00  5.276670877215E+00
