  115
CERIA BULK                              
 O  -1.948684309170E+00  1.167176825170E+00  4.011154043806E+00
 O   1.313978639559E+01  5.464090622271E+00  9.109769705100E-01
 O   1.694341883316E+01  5.458452194712E+00  8.979792218180E-01
 O   1.831598891525E+00  1.102096428681E+00  4.051047399810E+00
 O   1.126161855473E+01  4.337725626053E+00  4.105278930314E+00
 O  -5.594988928820E+00  1.160732083595E+00  4.093550229001E+00
 O   1.309647535119E+01  3.260285974543E+00  2.444307205684E+00
 O   1.118678106696E+01  6.557071760294E+00  2.501589827213E+00
 CE  1.832403064203E+00 -1.115822070154E+00  3.281771880491E+00
 CE -7.474003454100E-02  2.196390203980E+00  3.275810798784E+00
 CE  3.752895549506E+00 -4.405213226197E+00  3.221816677115E+00
 CE  5.708714409829E+00 -1.041416315442E+00  3.301848989731E+00
 CE  3.792870659221E+00  2.217223581664E+00  3.253984818630E+00
 CE  7.524975653309E+00 -4.340211612002E+00  3.238125385079E+00
 CE -1.893548593336E+00 -1.079752945674E+00  3.246349387039E+00
 CE -3.763945319474E+00  2.195831666017E+00  3.176581319565E+00
 CE  6.928141688000E-03 -4.355704620079E+00  3.276838795307E+00
 O  -2.393478791400E-02 -2.984033550000E-03  2.479267744481E+00
 O  -1.861369037710E+00  3.287588229941E+00  2.392380980279E+00
 O   1.878997914289E+01  4.313183757768E+00  4.040505886182E+00
 O   3.781728255731E+00 -8.588335928200E-02  2.547166127425E+00
 O   1.505976408474E+01  4.336500975773E+00  3.820100724832E+00
 O   1.693850665331E+01  3.262690082076E+00  2.389389080619E+00
 O  -3.780103832550E+00  1.166310852000E-02  2.425252908412E+00
 O   1.693515025372E+01  7.624229777489E+00  4.122842703723E+00
 O   1.316501422730E+01  7.620870582108E+00  3.952435065823E+00
 O   1.869378024340E+00 -1.074722000871E+00  9.089259422020E-01
 O  -1.187782954400E-02  2.157662062019E+00  8.803628617730E-01
 O   3.748654508686E+00 -4.346660612150E+00  8.654012694820E-01
 O   5.643986362913E+00 -1.081522929667E+00  8.861740972450E-01
 O   3.748418208107E+00  2.143989444416E+00  9.200278555510E-01
 O   1.885488650423E+01  6.555137021508E+00  2.496603920007E+00
 O  -1.887412817771E+00 -1.075505302579E+00  8.701907904250E-01
 O  -3.742841140049E+00  2.174201990165E+00  8.457729600200E-01
 O   1.507406532454E+01  6.567449828458E+00  2.442702587785E+00
 CE -3.590437218000E-03  5.713596624000E-03  4.044504424600E-02
 CE -1.873158114503E+00  3.257924715792E+00  1.058323159100E-02
 CE  1.875973690847E+00 -3.253043947305E+00  4.593086347900E-02
 CE  3.757916961584E+00 -4.954131164000E-03  6.132596187600E-02
 CE  1.870452754221E+00  3.254444447952E+00  5.500260489200E-02
 CE  5.630419272659E+00 -3.244013227369E+00  5.417240925600E-02
 CE -3.761751616817E+00 -4.435787234000E-03  2.399231745000E-02
 CE -5.634157212828E+00  3.262760971209E+00  3.562675920700E-02
 CE -1.874326361180E+00 -3.252517953292E+00  5.273187693500E-02
 O  -1.875236077388E+00  1.085655303953E+00 -7.607731823610E-01
 O  -3.760503683057E+00  4.353107865048E+00 -7.574745172200E-01
 O   2.754911533000E-03 -2.171131010561E+00 -7.406250467700E-01
 O   1.884243043600E+00  1.088595501337E+00 -7.385212238060E-01
 O   1.131350823400E-02  4.351091999097E+00 -7.400677641410E-01
 O   3.751651295844E+00 -2.163083487074E+00 -7.355096909960E-01
 O  -5.649458819104E+00  1.087730348433E+00 -7.413267195860E-01
 O  -7.516805051776E+00  4.341919151577E+00 -7.182733932540E-01
 O  -3.760963818348E+00 -2.180646131090E+00 -7.480660270490E-01
 O   0.000000000000E+00  0.000000000000E+00 -2.343480358560E+00
 O  -1.877250135018E+00  3.258304679623E+00 -2.343480358560E+00
 O   1.877250135023E+00 -3.258304679618E+00 -2.343480358560E+00
 O   3.757747708427E+00  1.877510941000E-03 -2.343480358560E+00
 O   1.880497573401E+00  3.260182190570E+00 -2.343480358560E+00
 O   5.634997843462E+00 -3.256427168676E+00 -2.343480358560E+00
 O  -3.757747708427E+00 -1.877510951000E-03 -2.343480358560E+00
 O  -5.634997843462E+00  3.256427168676E+00 -2.343480358560E+00
 O  -1.880497573406E+00 -3.260182190565E+00 -2.343480358560E+00
 CE -1.878332614483E+00  1.085475722892E+00 -3.124640478080E+00
 CE -3.755582749499E+00  4.343780402519E+00 -3.124640478080E+00
 CE -1.082479461000E-03 -2.172828956729E+00 -3.124640478080E+00
 CE  1.879415093941E+00  1.087353233837E+00 -3.124640478080E+00
 CE  2.164958921000E-03  4.345657913464E+00 -3.124640478080E+00
 CE  3.756665228967E+00 -2.170951445785E+00 -3.124640478080E+00
 CE -5.636080322953E+00  1.083598211932E+00 -3.124640478080E+00
 CE -7.513330457929E+00  4.341902891576E+00 -3.124640478080E+00
 CE -3.758830187890E+00 -2.174706467679E+00 -3.124640478080E+00
 O   1.878332614483E+00 -1.085475722892E+00 -3.905800597599E+00
 O   1.082479461000E-03  2.172828956729E+00 -3.905800597599E+00
 O   3.755582749499E+00 -4.343780402519E+00 -3.905800597599E+00
 O   5.636080322953E+00 -1.083598211932E+00 -3.905800597599E+00
 O   3.758830187894E+00  2.174706467680E+00 -3.905800597599E+00
 O   7.513330457929E+00 -4.341902891576E+00 -3.905800597599E+00
 O  -1.879415093941E+00 -1.087353233837E+00 -3.905800597599E+00
 O  -3.756665228970E+00  2.170951445785E+00 -3.905800597599E+00
 O  -2.164958922000E-03 -4.345657913465E+00 -3.905800597599E+00
 O  -5.718745122269E+00  7.690191921409E+00  6.759301709907E+00
 H  -5.559654844575E+00  7.707109140194E+00  5.764979517437E+00
 H   7.443683767830E-01 -1.792054684197E+00  7.173686733959E+00
 H  -7.115640450781E+00  2.320546613158E+00  6.465751534194E+00
 O  -7.917818715939E+00  2.382397657021E+00  5.866428681596E+00
 H  -8.677769686156E+00  1.874442734631E+00  6.221891923165E+00
 H  -9.778238388046E+00  8.900897730829E+00  6.123035996131E+00
 O  -5.130569039676E+00 -9.056760064940E-01  6.106412225922E+00
 H  -1.103267713430E+01  8.453931783631E+00  6.942951544492E+00
 O  -5.431204168704E+00  2.321023827683E+00  6.594467636928E+00
 H  -5.371207120730E+00  1.657896902651E+00  5.851325398410E+00
 H  -5.122272428727E+00  1.913394708267E+00  7.424101215207E+00
 O   3.949328458880E-01  1.724648854643E+00  6.169827736706E+00
 H   2.774816669170E-01  1.034711364275E+00  6.861616418090E+00
 H   1.680445098050E-01  2.599580874776E+00  6.619454630196E+00
 H  -2.016463904161E+00  2.511836283370E-01  5.773925773592E+00
 O  -2.243637319776E+00 -6.941108661220E-01  5.915098308126E+00
 H  -1.545657679250E+00 -1.095299353124E+00  6.497243054613E+00
 O  -5.996472400006E+00  5.170557561588E+00  5.973386980523E+00
 H  -5.696964747150E+00  4.324131951897E+00  6.368290449807E+00
 H  -5.778643870625E+00  5.929588294356E+00  6.574201096370E+00
 O  -8.865589566776E+00  5.591311935970E+00  5.798998197988E+00
 H  -7.937726111022E+00  5.274878513509E+00  5.930302727730E+00
 H  -8.856241707972E+00  6.555899031981E+00  5.928402872045E+00
 O  -5.640345358854E+00  1.405773912600E+01  6.733727610012E+00
 H  -5.513045144082E+00  1.414132515892E+01  5.736217256680E+00
 H  -4.889058104850E+00  1.450934805184E+01  7.160057912905E+00
 O  -7.888967542717E+00  1.524834318439E+01  5.928222703889E+00
 H  -7.201601366663E+00  1.478762369499E+01  6.478143271921E+00
 H  -8.673427369585E+00  1.467437990611E+01  5.820918860186E+00
 O  -3.404619338344E+00  8.976212038550E+00  5.828050600778E+00
 O  -1.816507094425E+00  7.547496532581E+00  4.384539469705E+00
 H  -2.516239183724E+00  9.282266806612E+00  6.093723939296E+00
 H  -1.993567997105E+00  7.093559752856E+00  5.243519274847E+00
 H   7.376971488927E+00  1.087512299565E+01  5.031171473107E+00
