  115
CERIA BULK                              
 O  -1.853396546494E+00  1.192138025969E+00  4.107346975922E+00
 O   1.312439079231E+01  5.416749804110E+00  9.548764205070E-01
 O   1.690666734144E+01  5.428131236415E+00  9.555641245530E-01
 O   1.673569897936E+00  1.164803094490E+00  4.305479870706E+00
 O   1.126386128047E+01  4.291547698052E+00  4.105319649754E+00
 O  -5.538498679695E+00  1.071617316684E+00  4.019249344959E+00
 O   1.310958941618E+01  3.174837193864E+00  2.454604874718E+00
 O   1.117654280745E+01  6.506876444455E+00  2.511607193486E+00
 CE  1.817045424237E+00 -1.087447967103E+00  3.287600072819E+00
 CE -6.994702485300E-02  2.202765196174E+00  3.158278262060E+00
 CE  3.757575441080E+00 -4.399095225722E+00  3.268191554921E+00
 CE  5.719614702480E+00 -1.037223981623E+00  3.232581057431E+00
 CE  3.789551170502E+00  2.177048564304E+00  3.321986638259E+00
 CE  7.520767852720E+00 -4.342986546753E+00  3.282660564916E+00
 CE -1.873413019250E+00 -1.071788866648E+00  3.298987549084E+00
 CE -3.752174519221E+00  2.177781429897E+00  3.217258369740E+00
 CE  1.310017259400E-02 -4.358677718686E+00  3.334582778250E+00
 O   1.347978959600E-02  7.470842092000E-03  2.470621109340E+00
 O  -1.889567537520E+00  3.291825582511E+00  2.402718365816E+00
 O   1.874965397230E+01  4.267654829926E+00  4.081643692846E+00
 O   3.671910780086E+00 -4.322163171800E-02  2.603907475767E+00
 O   1.499244677473E+01  4.251136931876E+00  3.958503761753E+00
 O   1.688698975723E+01  3.237570061025E+00  2.463422624837E+00
 O  -3.679674024883E+00  1.492033768600E-02  2.430131974908E+00
 O   1.692957455101E+01  7.617597495911E+00  4.162786688759E+00
 O   1.309087299035E+01  7.631408368858E+00  4.031537769463E+00
 O   1.865611176653E+00 -1.095304485954E+00  9.147285916450E-01
 O  -2.461111507200E-02  2.163157032358E+00  8.653697998580E-01
 O   3.745538722971E+00 -4.329507497641E+00  8.896671562500E-01
 O   5.622393117083E+00 -1.057029422256E+00  9.403502113260E-01
 O   3.766323196429E+00  2.130235493709E+00  9.324342712050E-01
 O   1.883766933310E+01  6.522357313090E+00  2.574288473620E+00
 O  -1.854373395568E+00 -1.097045692775E+00  9.049470553490E-01
 O  -3.754575894308E+00  2.172652476635E+00  8.775563523490E-01
 O   1.503043734854E+01  6.510550064058E+00  2.540615021164E+00
 CE -1.823113056000E-03 -1.178235091200E-02  2.535339876200E-02
 CE -1.885421432936E+00  3.260789436362E+00 -4.014407040000E-03
 CE  1.881010610588E+00 -3.248074662668E+00  4.895605446000E-02
 CE  3.745872990787E+00  7.467260420000E-04  5.012442467300E-02
 CE  1.882084627507E+00  3.244347679033E+00  5.286477358800E-02
 CE  5.625727606915E+00 -3.250198730927E+00  5.218639058500E-02
 CE -3.742410892026E+00  3.654610225000E-03  2.154129170700E-02
 CE -5.629099924112E+00  3.253406627424E+00  4.966782720400E-02
 CE -1.862749344371E+00 -3.245308096423E+00  6.824590194300E-02
 O  -1.879181122718E+00  1.076708520689E+00 -7.383363191640E-01
 O  -3.764905082644E+00  4.344846732888E+00 -7.316196516040E-01
 O   3.896517616000E-03 -2.176414409607E+00 -7.281659261740E-01
 O   1.882382694124E+00  1.081902696235E+00 -7.167300403240E-01
 O   1.179617596100E-02  4.346159464476E+00 -7.184751268420E-01
 O   3.761269213790E+00 -2.158022576960E+00 -7.149424381760E-01
 O  -5.632365217258E+00  1.083557099219E+00 -7.265419630070E-01
 O  -7.502499099388E+00  4.341879772906E+00 -6.972800083210E-01
 O  -3.753672221669E+00 -2.168938801575E+00 -7.083879107500E-01
 O   0.000000000000E+00  0.000000000000E+00 -2.343480358560E+00
 O  -1.877910038922E+00  3.250678737605E+00 -2.343480358560E+00
 O   1.877910038927E+00 -3.250678737600E+00 -2.343480358560E+00
 O   3.751241826057E+00 -2.633445855000E-03 -2.343480358560E+00
 O   1.873331787129E+00  3.248045291755E+00 -2.343480358560E+00
 O   5.629151864997E+00 -3.253312183455E+00 -2.343480358560E+00
 O  -3.751241826057E+00  2.633445845000E-03 -2.343480358560E+00
 O  -5.629151864997E+00  3.253312183455E+00 -2.343480358560E+00
 O  -1.873331787134E+00 -3.248045291750E+00 -2.343480358560E+00
 CE -1.876383954995E+00  1.084437394485E+00 -3.124640478080E+00
 CE -3.754293993914E+00  4.335116132093E+00 -3.124640478080E+00
 CE  1.526083931000E-03 -2.166241343118E+00 -3.124640478080E+00
 CE  1.874857871060E+00  1.081803948633E+00 -3.124640478080E+00
 CE -3.052167863000E-03  4.332482686243E+00 -3.124640478080E+00
 CE  3.752767909989E+00 -2.168874788971E+00 -3.124640478080E+00
 CE -5.627625781097E+00  1.087070840321E+00 -3.124640478080E+00
 CE -7.505535819976E+00  4.337749577947E+00 -3.124640478080E+00
 CE -3.749715742129E+00 -2.163607897272E+00 -3.124640478080E+00
 O   1.876383954995E+00 -1.084437394485E+00 -3.905800597599E+00
 O  -1.526083931000E-03  2.166241343118E+00 -3.905800597599E+00
 O   3.754293993914E+00 -4.335116132093E+00 -3.905800597599E+00
 O   5.627625781097E+00 -1.087070840321E+00 -3.905800597599E+00
 O   3.749715742133E+00  2.163607897273E+00 -3.905800597599E+00
 O   7.505535819976E+00 -4.337749577947E+00 -3.905800597599E+00
 O  -1.874857871060E+00 -1.081803948633E+00 -3.905800597599E+00
 O  -3.752767909992E+00  2.168874788971E+00 -3.905800597599E+00
 O   3.052167862000E-03 -4.332482686244E+00 -3.905800597599E+00
 O  -5.556350156575E+00  7.705349325362E+00  6.836336257344E+00
 H  -5.336668348622E+00  7.765336152713E+00  5.866393658511E+00
 H   8.636543630470E-01 -1.789293029817E+00  7.347336753863E+00
 H  -6.690569334652E+00  2.076550801159E+00  6.439614574692E+00
 O  -7.477072700933E+00  1.766648511203E+00  5.906751824945E+00
 H  -8.283703036128E+00  1.974958765522E+00  6.438570274547E+00
 H  -9.109591314495E+00  9.708392860287E+00  7.090337822798E+00
 O  -4.270202200273E+00  3.539778932520E-01  7.506366140005E+00
 H  -9.870927206753E+00  9.879756408112E+00  8.454093696428E+00
 O  -5.386033139171E+00  2.760719666671E+00  7.296310108710E+00
 H  -4.829504495799E+00  1.922089960323E+00  7.332415346619E+00
 H  -5.574889439503E+00  2.972380503799E+00  8.230690064796E+00
 O   1.253660593045E+00  1.758888183580E+00  6.976819725979E+00
 H   1.213403768177E+00  1.364118604965E+00  7.865694975204E+00
 H   7.600565416150E-01  2.628331054593E+00  7.019284335817E+00
 H  -1.814585131929E+00  2.929198074730E-01  5.695342127640E+00
 O  -2.038491311606E+00 -6.241555975090E-01  5.987195212031E+00
 H  -1.289351033937E+00 -9.924402401660E-01  6.525615266006E+00
 O  -5.966837655274E+00  5.218612350926E+00  5.994855932891E+00
 H  -5.679293149928E+00  4.383096318329E+00  6.434825849960E+00
 H  -5.727918927688E+00  5.994039397947E+00  6.566571244041E+00
 O  -8.830513403342E+00  5.717577879141E+00  5.857130602632E+00
 H  -7.893734964849E+00  5.429610839150E+00  5.987460697139E+00
 H  -8.858568645000E+00  6.689770844954E+00  5.937873850773E+00
 O  -5.538710728979E+00  1.390849632353E+01  6.734345095640E+00
 H  -5.463886282069E+00  1.398995501385E+01  5.734685122296E+00
 H  -4.866472311329E+00  1.451687325693E+01  7.096280604172E+00
 O  -7.777863870572E+00  1.515932714368E+01  5.931762025480E+00
 H  -7.100127055028E+00  1.470083466394E+01  6.495556072884E+00
 H  -8.608136850767E+00  1.464682713061E+01  5.941497394160E+00
 O  -3.076741895774E+00  8.802532516502E+00  5.710406382505E+00
 O  -1.726343265979E+00  7.598546156129E+00  4.471631025740E+00
 H  -2.421475085277E+00  9.528644987153E+00  5.873424086658E+00
 H  -1.826544019749E+00  7.158942548903E+00  5.347421213071E+00
 H   7.169307183643E+00  1.092822151649E+01  5.284312787367E+00
  115
CERIA BULK                              
 O  -1.853396546494E+00  1.192138025969E+00  4.107346975922E+00
 O   1.312439079231E+01  5.416749804110E+00  9.548764205072E-01
 O   1.690666734144E+01  5.428131236415E+00  9.555641245528E-01
 O   1.673569897936E+00  1.164803094490E+00  4.305479870706E+00
 O   1.126386128047E+01  4.291547698052E+00  4.105319649754E+00
 O  -5.538498679695E+00  1.071617316684E+00  4.019249344959E+00
 O   1.310958941618E+01  3.174837193864E+00  2.454604874718E+00
 O   1.117654280745E+01  6.506876444455E+00  2.511607193486E+00
 CE  1.817045424237E+00 -1.087447967103E+00  3.287600072819E+00
 CE -6.994702485254E-02  2.202765196174E+00  3.158278262060E+00
 CE  3.757575441080E+00 -4.399095225722E+00  3.268191554921E+00
 CE  5.719614702480E+00 -1.037223981623E+00  3.232581057431E+00
 CE  3.789551170502E+00  2.177048564304E+00  3.321986638259E+00
 CE  7.520767852721E+00 -4.342986546753E+00  3.282660564916E+00
 CE -1.873413019250E+00 -1.071788866648E+00  3.298987549084E+00
 CE -3.752174519221E+00  2.177781429898E+00  3.217258369740E+00
 CE  1.310017259373E-02 -4.358677718686E+00  3.334582778250E+00
 O   1.347978959638E-02  7.470842092250E-03  2.470621109340E+00
 O  -1.889567537520E+00  3.291825582511E+00  2.402718365816E+00
 O   1.874965397230E+01  4.267654829926E+00  4.081643692846E+00
 O   3.671910780086E+00 -4.322163171751E-02  2.603907475767E+00
 O   1.499244677473E+01  4.251136931876E+00  3.958503761753E+00
 O   1.688698975723E+01  3.237570061025E+00  2.463422624837E+00
 O  -3.679674024883E+00  1.492033768612E-02  2.430131974908E+00
 O   1.692957455101E+01  7.617597495911E+00  4.162786688759E+00
 O   1.309087299035E+01  7.631408368858E+00  4.031537769463E+00
 O   1.865611176653E+00 -1.095304485954E+00  9.147285916447E-01
 O  -2.461111507232E-02  2.163157032358E+00  8.653697998577E-01
 O   3.745538722971E+00 -4.329507497641E+00  8.896671562497E-01
 O   5.622393117083E+00 -1.057029422256E+00  9.403502113257E-01
 O   3.766323196429E+00  2.130235493709E+00  9.324342712045E-01
 O   1.883766933310E+01  6.522357313090E+00  2.574288473620E+00
 O  -1.854373395568E+00 -1.097045692775E+00  9.049470553490E-01
 O  -3.754575894308E+00  2.172652476635E+00  8.775563523490E-01
 O   1.503043734854E+01  6.510550064058E+00  2.540615021164E+00
 CE -1.823113055941E-03 -1.178235091250E-02  2.535339876239E-02
 CE -1.885421432936E+00  3.260789436362E+00 -4.014407040252E-03
 CE  1.881010610588E+00 -3.248074662668E+00  4.895605445988E-02
 CE  3.745872990787E+00  7.467260417790E-04  5.012442467296E-02
 CE  1.882084627507E+00  3.244347679033E+00  5.286477358846E-02
 CE  5.625727606915E+00 -3.250198730927E+00  5.218639058506E-02
 CE -3.742410892026E+00  3.654610225058E-03  2.154129170650E-02
 CE -5.629099924112E+00  3.253406627424E+00  4.966782720418E-02
 CE -1.862749344371E+00 -3.245308096423E+00  6.824590194318E-02
 O  -1.879181122718E+00  1.076708520689E+00 -7.383363191637E-01
 O  -3.764905082644E+00  4.344846732888E+00 -7.316196516044E-01
 O   3.896517616389E-03 -2.176414409607E+00 -7.281659261742E-01
 O   1.882382694124E+00  1.081902696235E+00 -7.167300403237E-01
 O   1.179617596119E-02  4.346159464476E+00 -7.184751268415E-01
 O   3.761269213790E+00 -2.158022576960E+00 -7.149424381763E-01
 O  -5.632365217258E+00  1.083557099219E+00 -7.265419630070E-01
 O  -7.502499099388E+00  4.341879772906E+00 -6.972800083213E-01
 O  -3.753672221669E+00 -2.168938801575E+00 -7.083879107498E-01
 O   0.000000000000E+00  0.000000000000E+00 -2.343480358560E+00
 O  -1.877910038922E+00  3.250678737605E+00 -2.343480358560E+00
 O   1.877910038927E+00 -3.250678737600E+00 -2.343480358560E+00
 O   3.751241826057E+00 -2.633445855023E-03 -2.343480358560E+00
 O   1.873331787129E+00  3.248045291755E+00 -2.343480358560E+00
 O   5.629151864997E+00 -3.253312183455E+00 -2.343480358560E+00
 O  -3.751241826057E+00  2.633445845039E-03 -2.343480358560E+00
 O  -5.629151864997E+00  3.253312183455E+00 -2.343480358560E+00
 O  -1.873331787134E+00 -3.248045291750E+00 -2.343480358560E+00
 CE -1.876383954995E+00  1.084437394485E+00 -3.124640478080E+00
 CE -3.754293993914E+00  4.335116132093E+00 -3.124640478080E+00
 CE  1.526083931025E-03 -2.166241343118E+00 -3.124640478080E+00
 CE  1.874857871061E+00  1.081803948633E+00 -3.124640478080E+00
 CE -3.052167863054E-03  4.332482686243E+00 -3.124640478080E+00
 CE  3.752767909989E+00 -2.168874788971E+00 -3.124640478080E+00
 CE -5.627625781098E+00  1.087070840321E+00 -3.124640478080E+00
 CE -7.505535819976E+00  4.337749577947E+00 -3.124640478080E+00
 CE -3.749715742129E+00 -2.163607897272E+00 -3.124640478080E+00
 O   1.876383954995E+00 -1.084437394485E+00 -3.905800597599E+00
 O  -1.526083931025E-03  2.166241343118E+00 -3.905800597599E+00
 O   3.754293993914E+00 -4.335116132093E+00 -3.905800597599E+00
 O   5.627625781098E+00 -1.087070840321E+00 -3.905800597599E+00
 O   3.749715742133E+00  2.163607897273E+00 -3.905800597599E+00
 O   7.505535819976E+00 -4.337749577947E+00 -3.905800597599E+00
 O  -1.874857871061E+00 -1.081803948633E+00 -3.905800597599E+00
 O  -3.752767909992E+00  2.168874788971E+00 -3.905800597599E+00
 O   3.052167862054E-03 -4.332482686244E+00 -3.905800597599E+00
 O  -5.556350156575E+00  7.705349325362E+00  6.836336257344E+00
 H  -5.336668348622E+00  7.765336152713E+00  5.866393658510E+00
 H   8.636543630466E-01 -1.789293029817E+00  7.347336753862E+00
 H  -6.690569334651E+00  2.076550801159E+00  6.439614574692E+00
 O  -7.477072700933E+00  1.766648511203E+00  5.906751824945E+00
 H  -8.283703036128E+00  1.974958765522E+00  6.438570274547E+00
 H  -9.109591314495E+00  9.708392860287E+00  7.090337822798E+00
 O  -4.270202200273E+00  3.539778932523E-01  7.506366140005E+00
 H  -9.870927206753E+00  9.879756408112E+00  8.454093696428E+00
 O  -5.386033139171E+00  2.760719666671E+00  7.296310108710E+00
 H  -4.829504495799E+00  1.922089960323E+00  7.332415346619E+00
 H  -5.574889439503E+00  2.972380503799E+00  8.230690064796E+00
 O   1.253660593044E+00  1.758888183580E+00  6.976819725979E+00
 H   1.213403768177E+00  1.364118604965E+00  7.865694975204E+00
 H   7.600565416145E-01  2.628331054593E+00  7.019284335817E+00
 H  -1.814585131929E+00  2.929198074726E-01  5.695342127639E+00
 O  -2.038491311606E+00 -6.241555975088E-01  5.987195212030E+00
 H  -1.289351033937E+00 -9.924402401659E-01  6.525615266007E+00
 O  -5.966837655274E+00  5.218612350926E+00  5.994855932891E+00
 H  -5.679293149929E+00  4.383096318329E+00  6.434825849960E+00
 H  -5.727918927688E+00  5.994039397947E+00  6.566571244041E+00
 O  -8.830513403342E+00  5.717577879141E+00  5.857130602632E+00
 H  -7.893734964849E+00  5.429610839150E+00  5.987460697139E+00
 H  -8.858568645000E+00  6.689770844954E+00  5.937873850773E+00
 O  -5.538710728979E+00  1.390849632353E+01  6.734345095640E+00
 H  -5.463886282069E+00  1.398995501385E+01  5.734685122296E+00
 H  -4.866472311329E+00  1.451687325693E+01  7.096280604172E+00
 O  -7.777863870572E+00  1.515932714368E+01  5.931762025480E+00
 H  -7.100127055028E+00  1.470083466394E+01  6.495556072884E+00
 H  -8.608136850767E+00  1.464682713061E+01  5.941497394159E+00
 O  -3.076741895774E+00  8.802532516502E+00  5.710406382505E+00
 O  -1.726343265979E+00  7.598546156129E+00  4.471631025740E+00
 H  -2.421475085277E+00  9.528644987153E+00  5.873424086658E+00
 H  -1.826544019749E+00  7.158942548903E+00  5.347421213071E+00
 H   7.169307183643E+00  1.092822151649E+01  5.284312787367E+00
  115
CERIA BULK                               E -1.7736756816018E+04 DE 4.4E-09(  6)
 O  -1.853396546494E+00  1.192138025969E+00  4.107346975922E+00
 O   1.312439079231E+01  5.416749804110E+00  9.548764205072E-01
 O   1.690666734144E+01  5.428131236415E+00  9.555641245528E-01
 O   1.673569897936E+00  1.164803094490E+00  4.305479870706E+00
 O   1.126386128047E+01  4.291547698052E+00  4.105319649754E+00
 O  -5.538498679695E+00  1.071617316684E+00  4.019249344959E+00
 O   1.310958941618E+01  3.174837193864E+00  2.454604874718E+00
 O   1.117654280745E+01  6.506876444455E+00  2.511607193486E+00
 CE  1.817045424237E+00 -1.087447967103E+00  3.287600072819E+00
 CE -6.994702485254E-02  2.202765196174E+00  3.158278262060E+00
 CE  3.757575441080E+00 -4.399095225722E+00  3.268191554921E+00
 CE  5.719614702480E+00 -1.037223981623E+00  3.232581057431E+00
 CE  3.789551170502E+00  2.177048564304E+00  3.321986638259E+00
 CE  7.520767852721E+00 -4.342986546753E+00  3.282660564916E+00
 CE -1.873413019250E+00 -1.071788866648E+00  3.298987549084E+00
 CE -3.752174519221E+00  2.177781429898E+00  3.217258369740E+00
 CE  1.310017259373E-02 -4.358677718686E+00  3.334582778250E+00
 O   1.347978959638E-02  7.470842092250E-03  2.470621109340E+00
 O  -1.889567537520E+00  3.291825582511E+00  2.402718365816E+00
 O   1.874965397230E+01  4.267654829926E+00  4.081643692846E+00
 O   3.671910780086E+00 -4.322163171751E-02  2.603907475767E+00
 O   1.499244677473E+01  4.251136931876E+00  3.958503761753E+00
 O   1.688698975723E+01  3.237570061025E+00  2.463422624837E+00
 O  -3.679674024883E+00  1.492033768612E-02  2.430131974908E+00
 O   1.692957455101E+01  7.617597495911E+00  4.162786688759E+00
 O   1.309087299035E+01  7.631408368858E+00  4.031537769463E+00
 O   1.865611176653E+00 -1.095304485954E+00  9.147285916447E-01
 O  -2.461111507232E-02  2.163157032358E+00  8.653697998577E-01
 O   3.745538722971E+00 -4.329507497641E+00  8.896671562497E-01
 O   5.622393117083E+00 -1.057029422256E+00  9.403502113257E-01
 O   3.766323196429E+00  2.130235493709E+00  9.324342712045E-01
 O   1.883766933310E+01  6.522357313090E+00  2.574288473620E+00
 O  -1.854373395568E+00 -1.097045692775E+00  9.049470553490E-01
 O  -3.754575894308E+00  2.172652476635E+00  8.775563523490E-01
 O   1.503043734854E+01  6.510550064058E+00  2.540615021164E+00
 CE -1.823113055941E-03 -1.178235091250E-02  2.535339876239E-02
 CE -1.885421432936E+00  3.260789436362E+00 -4.014407040252E-03
 CE  1.881010610588E+00 -3.248074662668E+00  4.895605445988E-02
 CE  3.745872990787E+00  7.467260417790E-04  5.012442467296E-02
 CE  1.882084627507E+00  3.244347679033E+00  5.286477358846E-02
 CE  5.625727606915E+00 -3.250198730927E+00  5.218639058506E-02
 CE -3.742410892026E+00  3.654610225058E-03  2.154129170650E-02
 CE -5.629099924112E+00  3.253406627424E+00  4.966782720418E-02
 CE -1.862749344371E+00 -3.245308096423E+00  6.824590194318E-02
 O  -1.879181122718E+00  1.076708520689E+00 -7.383363191637E-01
 O  -3.764905082644E+00  4.344846732888E+00 -7.316196516044E-01
 O   3.896517616389E-03 -2.176414409607E+00 -7.281659261742E-01
 O   1.882382694124E+00  1.081902696235E+00 -7.167300403237E-01
 O   1.179617596119E-02  4.346159464476E+00 -7.184751268415E-01
 O   3.761269213790E+00 -2.158022576960E+00 -7.149424381763E-01
 O  -5.632365217258E+00  1.083557099219E+00 -7.265419630070E-01
 O  -7.502499099388E+00  4.341879772906E+00 -6.972800083213E-01
 O  -3.753672221669E+00 -2.168938801575E+00 -7.083879107498E-01
 O   0.000000000000E+00  0.000000000000E+00 -2.343480358560E+00
 O  -1.877910038922E+00  3.250678737605E+00 -2.343480358560E+00
 O   1.877910038927E+00 -3.250678737600E+00 -2.343480358560E+00
 O   3.751241826057E+00 -2.633445855023E-03 -2.343480358560E+00
 O   1.873331787129E+00  3.248045291755E+00 -2.343480358560E+00
 O   5.629151864997E+00 -3.253312183455E+00 -2.343480358560E+00
 O  -3.751241826057E+00  2.633445845039E-03 -2.343480358560E+00
 O  -5.629151864997E+00  3.253312183455E+00 -2.343480358560E+00
 O  -1.873331787134E+00 -3.248045291750E+00 -2.343480358560E+00
 CE -1.876383954995E+00  1.084437394485E+00 -3.124640478080E+00
 CE -3.754293993914E+00  4.335116132093E+00 -3.124640478080E+00
 CE  1.526083931025E-03 -2.166241343118E+00 -3.124640478080E+00
 CE  1.874857871061E+00  1.081803948633E+00 -3.124640478080E+00
 CE -3.052167863054E-03  4.332482686243E+00 -3.124640478080E+00
 CE  3.752767909989E+00 -2.168874788971E+00 -3.124640478080E+00
 CE -5.627625781098E+00  1.087070840321E+00 -3.124640478080E+00
 CE -7.505535819976E+00  4.337749577947E+00 -3.124640478080E+00
 CE -3.749715742129E+00 -2.163607897272E+00 -3.124640478080E+00
 O   1.876383954995E+00 -1.084437394485E+00 -3.905800597599E+00
 O  -1.526083931025E-03  2.166241343118E+00 -3.905800597599E+00
 O   3.754293993914E+00 -4.335116132093E+00 -3.905800597599E+00
 O   5.627625781098E+00 -1.087070840321E+00 -3.905800597599E+00
 O   3.749715742133E+00  2.163607897273E+00 -3.905800597599E+00
 O   7.505535819976E+00 -4.337749577947E+00 -3.905800597599E+00
 O  -1.874857871061E+00 -1.081803948633E+00 -3.905800597599E+00
 O  -3.752767909992E+00  2.168874788971E+00 -3.905800597599E+00
 O   3.052167862054E-03 -4.332482686244E+00 -3.905800597599E+00
 O  -5.556350156575E+00  7.705349325362E+00  6.836336257344E+00
 H  -5.336668348622E+00  7.765336152713E+00  5.866393658510E+00
 H   8.636543630466E-01 -1.789293029817E+00  7.347336753862E+00
 H  -6.690569334651E+00  2.076550801159E+00  6.439614574692E+00
 O  -7.477072700933E+00  1.766648511203E+00  5.906751824945E+00
 H  -8.283703036128E+00  1.974958765522E+00  6.438570274547E+00
 H  -9.109591314495E+00  9.708392860287E+00  7.090337822798E+00
 O  -4.270202200273E+00  3.539778932523E-01  7.506366140005E+00
 H  -9.870927206753E+00  9.879756408112E+00  8.454093696428E+00
 O  -5.386033139171E+00  2.760719666671E+00  7.296310108710E+00
 H  -4.829504495799E+00  1.922089960323E+00  7.332415346619E+00
 H  -5.574889439503E+00  2.972380503799E+00  8.230690064796E+00
 O   1.253660593044E+00  1.758888183580E+00  6.976819725979E+00
 H   1.213403768177E+00  1.364118604965E+00  7.865694975204E+00
 H   7.600565416145E-01  2.628331054593E+00  7.019284335817E+00
 H  -1.814585131929E+00  2.929198074726E-01  5.695342127639E+00
 O  -2.038491311606E+00 -6.241555975088E-01  5.987195212030E+00
 H  -1.289351033937E+00 -9.924402401659E-01  6.525615266007E+00
 O  -5.966837655274E+00  5.218612350926E+00  5.994855932891E+00
 H  -5.679293149929E+00  4.383096318329E+00  6.434825849960E+00
 H  -5.727918927688E+00  5.994039397947E+00  6.566571244041E+00
 O  -8.830513403342E+00  5.717577879141E+00  5.857130602632E+00
 H  -7.893734964849E+00  5.429610839150E+00  5.987460697139E+00
 H  -8.858568645000E+00  6.689770844954E+00  5.937873850773E+00
 O  -5.538710728979E+00  1.390849632353E+01  6.734345095640E+00
 H  -5.463886282069E+00  1.398995501385E+01  5.734685122296E+00
 H  -4.866472311329E+00  1.451687325693E+01  7.096280604172E+00
 O  -7.777863870572E+00  1.515932714368E+01  5.931762025480E+00
 H  -7.100127055028E+00  1.470083466394E+01  6.495556072884E+00
 H  -8.608136850767E+00  1.464682713061E+01  5.941497394159E+00
 O  -3.076741895774E+00  8.802532516502E+00  5.710406382505E+00
 O  -1.726343265979E+00  7.598546156129E+00  4.471631025740E+00
 H  -2.421475085277E+00  9.528644987153E+00  5.873424086658E+00
 H  -1.826544019749E+00  7.158942548903E+00  5.347421213071E+00
 H   7.169307183643E+00  1.092822151649E+01  5.284312787367E+00
