  115
CERIA BULK                              
 O  -1.827622095336E+00  1.036424561358E+00  4.033303465741E+00
 O   1.314319504194E+01  5.437385662524E+00  8.791967437080E-01
 O   1.691292450950E+01  5.432614335812E+00  8.854222826790E-01
 O   1.806695849371E+00  1.250678859330E+00  4.274943114226E+00
 O   1.117170366339E+01  4.318098869242E+00  4.102384622666E+00
 O  -5.568141396651E+00  1.048134640325E+00  4.029278738702E+00
 O   1.312377834528E+01  3.258637885036E+00  2.434631995451E+00
 O   1.127095885837E+01  6.555693301915E+00  2.461015350535E+00
 CE  1.851033230618E+00 -1.080158764527E+00  3.305634345347E+00
 CE -1.776053446600E-02  2.156041811808E+00  3.190199963357E+00
 CE  3.739868411689E+00 -4.425057727573E+00  3.154668374127E+00
 CE  5.699639990111E+00 -1.027058277103E+00  3.251690080829E+00
 CE  3.768540522321E+00  2.202269582248E+00  3.305851944529E+00
 CE  7.514150014174E+00 -4.347054543763E+00  3.264483415048E+00
 CE -1.862303065633E+00 -1.061436018446E+00  3.154987425603E+00
 CE -3.742676366808E+00  2.173584834169E+00  3.302792131875E+00
 CE -1.662313134400E-02 -4.339679671070E+00  3.274409910110E+00
 O   1.757170301000E-02  2.404313797900E-02  2.384844902656E+00
 O  -1.887528148467E+00  3.218625549719E+00  2.378962191656E+00
 O   1.890555711772E+01  4.374385767438E+00  4.035109144502E+00
 O   3.774051867449E+00 -3.653993610000E-04  2.524854517592E+00
 O   1.496397480193E+01  4.405067288054E+00  3.964574237274E+00
 O   1.693048709096E+01  3.275905608931E+00  2.504036145305E+00
 O  -3.741313431933E+00  1.475945020600E-02  2.395101332184E+00
 O   1.680272570166E+01  7.599077374344E+00  4.123288557398E+00
 O   1.320211255906E+01  7.691244285275E+00  4.100152867896E+00
 O   1.897125899437E+00 -1.083267609936E+00  8.360401895120E-01
 O   1.734884072000E-03  2.179652482188E+00  8.338615166980E-01
 O   3.771576090224E+00 -4.363635368175E+00  8.552880324520E-01
 O   5.640201542677E+00 -1.074509347841E+00  8.885856223320E-01
 O   3.766815037963E+00  2.178746241413E+00  9.131342292740E-01
 O   1.881017806050E+01  6.521623984185E+00  2.436946634390E+00
 O  -1.872532746440E+00 -1.079513499752E+00  8.354067850010E-01
 O  -3.782899342416E+00  2.183427795128E+00  8.581932512520E-01
 O   1.501607219052E+01  6.546740635450E+00  2.399193074167E+00
 CE  1.848280166700E-02 -2.815128600000E-05  2.610889138800E-02
 CE -1.889448110752E+00  3.254348149551E+00  1.630512210500E-02
 CE  1.877098039655E+00 -3.252401937960E+00  5.258903351300E-02
 CE  3.758564132372E+00  3.265537681000E-03  7.298211616600E-02
 CE  1.880959382161E+00  3.267482304366E+00  5.199366883400E-02
 CE  5.644892885436E+00 -3.256525035870E+00  4.428442874800E-02
 CE -3.766808369359E+00  1.507392500700E-02  3.074180290000E-02
 CE -5.640387408107E+00  3.266072729949E+00  6.804625206200E-02
 CE -1.880997168371E+00 -3.267511900001E+00  4.473070578300E-02
 O  -1.887253894167E+00  1.093269135923E+00 -7.803996701150E-01
 O  -3.767326363109E+00  4.356311804400E+00 -7.677984270380E-01
 O  -2.297104790000E-04 -2.184657137198E+00 -7.705943088320E-01
 O   1.896919370097E+00  1.101358982982E+00 -7.678501873030E-01
 O   2.139970982000E-03  4.358513844898E+00 -7.747557362050E-01
 O   3.775253780268E+00 -2.175338772572E+00 -7.625053019340E-01
 O  -5.650180965954E+00  1.093453128271E+00 -7.656134869650E-01
 O  -7.521421613625E+00  4.350609947341E+00 -7.600507008290E-01
 O  -3.766206987270E+00 -2.172377994039E+00 -7.660622833720E-01
 O   0.000000000000E+00  0.000000000000E+00 -2.343480358560E+00
 O  -1.880427363273E+00  3.263583023732E+00 -2.343480358560E+00
 O   1.880427363278E+00 -3.263583023727E+00 -2.343480358560E+00
 O   3.759883681923E+00 -4.949972710000E-04 -2.343480358560E+00
 O   1.879456318643E+00  3.263088026467E+00 -2.343480358560E+00
 O   5.640311045211E+00 -3.264078020996E+00 -2.343480358560E+00
 O  -3.759883681924E+00  4.949972610000E-04 -2.343480358560E+00
 O  -5.640311045211E+00  3.264078020996E+00 -2.343480358560E+00
 O  -1.879456318648E+00 -3.263088026462E+00 -2.343480358560E+00
 CE -1.880103681733E+00  1.088026006998E+00 -3.124640478080E+00
 CE -3.760531045001E+00  4.351609030735E+00 -3.124640478080E+00
 CE  3.236815450002E-04 -2.175557016730E+00 -3.124640478080E+00
 CE  1.879780000189E+00  1.087531009733E+00 -3.124640478080E+00
 CE -6.473630870003E-04  4.351114033465E+00 -3.124640478080E+00
 CE  3.760207363467E+00 -2.176052013998E+00 -3.124640478080E+00
 CE -5.639987363698E+00  1.088521004251E+00 -3.124640478080E+00
 CE -7.520414726934E+00  4.352104028003E+00 -3.124640478080E+00
 CE -3.759560000382E+00 -2.175062019467E+00 -3.124640478080E+00
 O   1.880103681733E+00 -1.088026006998E+00 -3.905800597599E+00
 O  -3.236815450002E-04  2.175557016730E+00 -3.905800597599E+00
 O   3.760531045001E+00 -4.351609030735E+00 -3.905800597599E+00
 O   5.639987363698E+00 -1.088521004251E+00 -3.905800597599E+00
 O   3.759560000386E+00  2.175062019468E+00 -3.905800597599E+00
 O   7.520414726934E+00 -4.352104028003E+00 -3.905800597599E+00
 O  -1.879780000189E+00 -1.087531009733E+00 -3.905800597599E+00
 O  -3.760207363470E+00  2.176052013997E+00 -3.905800597599E+00
 O   6.473630860000E-04 -4.351114033466E+00 -3.905800597599E+00
 O  -3.587788872398E+00  2.308396740316E+00  5.917714262697E+00
 H  -2.679131495710E+00  2.670214245980E+00  6.130562978725E+00
 O   1.697671213020E+00  2.699997811726E+00  6.601267767198E+00
 H   1.732634659614E+00  3.668408669378E+00  6.411124176232E+00
 H   1.648505452486E+00  2.237425391644E+00  5.720102105766E+00
 H  -3.606146100118E+00  1.404934464555E+00  6.270885096525E+00
 O  -7.001131974016E+00  2.457423233559E+00  5.891638788291E+00
 H  -6.548761273656E+00  1.624066227101E+00  6.153247322394E+00
 H   3.421267384826E+00  2.514981638548E+00  6.392881690542E+00
 H   7.569963158270E+00 -3.582054583713E+00  6.418158754044E+00
 O   7.221700407168E+00 -4.403007974412E+00  5.967046103540E+00
 O  -3.164902321090E-01 -2.041894259307E+00  6.703414927698E+00
 H  -2.565731436190E-01 -2.116618791415E+00  5.690640904473E+00
 H  -1.519749513730E-01 -2.965202212851E+00  6.976320423237E+00
 O   2.143997299328E+00 -6.708539080410E-01  6.085936457742E+00
 H   1.916918598769E+00  2.135633256330E-01  5.678321947111E+00
 H   1.342044080406E+00 -1.035959386312E+00  6.534414296075E+00
 H   6.249582122405E+00 -4.370477253047E+00  5.995012787833E+00
 H  -6.130594300738E+00  4.093441957017E+00  5.979493503471E+00
 O  -5.534969822780E+00  4.876015239739E+00  5.873304530143E+00
 H  -4.639336243001E+00  4.486927892069E+00  5.768236897546E+00
 O  -3.225069494281E+00 -1.946549889872E+00  6.626731748091E+00
 H  -2.260500844547E+00 -1.871995811781E+00  6.826187557310E+00
 H  -3.333172037715E+00 -1.945837042707E+00  5.613636248762E+00
 O  -1.162911529884E+00  3.447854546163E+00  6.397755004328E+00
 H  -4.232036770800E-01  2.984213107883E+00  6.836279030394E+00
 H  -7.636822798650E-01  3.800627125109E+00  5.551323875644E+00
 O  -1.832308881786E+00  7.475234523656E+00  4.315751485374E+00
 H  -1.755575477708E+00  7.570823536426E+00  5.277823763735E+00
 O   1.114356687919E+01  8.628026588681E+00  6.137828882476E+00
 O   1.038732637245E+01  9.658636805312E+00  6.902689399423E+00
 H   1.198007196108E+01  8.542836700561E+00  6.664316789490E+00
 H   9.447988673680E+00  9.361781718637E+00  6.734364079849E+00
 O   1.134086528834E+00  8.893092493731E+00  8.558400000000E+00
 H   1.388969674797E+00  9.141529299798E+00  9.468200000000E+00
