  112
CERIA BULK                              
 O  -1.832160693032E+00  1.127306520248E+00  3.928908673966E+00
 O   1.316873115562E+01  5.445818677514E+00  8.730245091200E-01
 O   1.694745038711E+01  5.451199964367E+00  8.649780434790E-01
 O   1.767243908562E+00  1.098659510789E+00  4.159093513899E+00
 O   1.141250589255E+01  4.291339951796E+00  4.096002839299E+00
 O  -5.657634515532E+00  1.076409009467E+00  3.994398365373E+00
 O   1.317545368061E+01  3.218834777067E+00  2.350132445576E+00
 O   1.127886110004E+01  6.581636692749E+00  2.464556016051E+00
 CE  1.857621543876E+00 -1.078229279332E+00  3.256737195245E+00
 CE -7.360098427000E-03  2.160206197072E+00  3.170854635991E+00
 CE  3.752771475228E+00 -4.404319510126E+00  3.327079602565E+00
 CE  5.694009173507E+00 -1.030127111314E+00  3.244755768838E+00
 CE  3.765920111797E+00  2.195207625941E+00  3.246350132420E+00
 CE  7.531973080399E+00 -4.337217543742E+00  3.215909810717E+00
 CE -1.873134763388E+00 -1.081391618365E+00  3.322537588733E+00
 CE -3.750910282323E+00  2.169844751126E+00  3.266257860885E+00
 CE -1.703164604800E-02 -4.354870100076E+00  3.319305729966E+00
 O   2.049231688600E-02 -2.848568695700E-02  2.390314236523E+00
 O  -1.870810119188E+00  3.273828263151E+00  2.392479621620E+00
 O   1.880372564571E+01  4.232266391769E+00  4.130955542799E+00
 O   3.729638237127E+00 -1.089432709800E-02  2.450992887818E+00
 O   1.494725778015E+01  4.310078185255E+00  4.017457432995E+00
 O   1.692034784381E+01  3.267774926735E+00  2.420667570015E+00
 O  -3.751961689349E+00 -4.437896731700E-02  2.448325313550E+00
 O   1.693627131543E+01  7.687284219520E+00  4.146947989659E+00
 O   1.320321431083E+01  7.563832180869E+00  4.155069400762E+00
 O   1.886605818337E+00 -1.097181204971E+00  8.386245448320E-01
 O  -1.245877753400E-02  2.158932577647E+00  8.234429692160E-01
 O   3.761405822537E+00 -4.331480676200E+00  8.462967792060E-01
 O   5.644745179488E+00 -1.055675445143E+00  8.664547610710E-01
 O   3.777427011974E+00  2.157947557895E+00  8.470204642640E-01
 O   1.883450818916E+01  6.541139474689E+00  2.491971704996E+00
 O  -1.884154017587E+00 -1.080411286209E+00  8.507565104400E-01
 O  -3.764624542480E+00  2.155947219558E+00  8.616127086960E-01
 O   1.505614916365E+01  6.563737226857E+00  2.438141812382E+00
 CE -6.408810069000E-03 -1.441992616900E-02  4.428202331000E-02
 CE -1.886810883217E+00  3.263241520576E+00  4.849839723200E-02
 CE  1.880179729214E+00 -3.261211950905E+00  8.276293565200E-02
 CE  3.762860677455E+00  2.728621526000E-03  5.303282590300E-02
 CE  1.886313471480E+00  3.254849884048E+00  3.789373724600E-02
 CE  5.631324363891E+00 -3.248405464500E+00  7.189964290200E-02
 CE -3.757821538533E+00 -3.490014026000E-03  5.180785973200E-02
 CE -5.644089454059E+00  3.255369820365E+00  6.744675275100E-02
 CE -1.880464684230E+00 -3.252084663150E+00  7.128835227000E-02
 O  -1.890058315885E+00  1.082790671369E+00 -7.980329737090E-01
 O  -3.765228662636E+00  4.337979902350E+00 -7.813584448760E-01
 O  -5.892638983000E-03 -2.177636873667E+00 -7.866125450270E-01
 O   1.884568297213E+00  1.084440508356E+00 -7.917783313260E-01
 O   5.038413108000E-03  4.349319462332E+00 -7.864081684080E-01
 O   3.769323435715E+00 -2.165285237389E+00 -7.841192995600E-01
 O  -5.642839530853E+00  1.080695330223E+00 -7.934032206860E-01
 O  -7.529359235056E+00  4.340909018324E+00 -7.784439782140E-01
 O  -3.772675673506E+00 -2.175461898420E+00 -7.789936843680E-01
 O   0.000000000000E+00  0.000000000000E+00 -2.343480358560E+00
 O  -1.879578588277E+00  3.256276261331E+00 -2.343480358560E+00
 O   1.879578588282E+00 -3.256276261326E+00 -2.343480358560E+00
 O   3.764550013382E+00  3.134316979000E-03 -2.343480358560E+00
 O   1.884971425099E+00  3.259410578314E+00 -2.343480358560E+00
 O   5.644128601676E+00 -3.253141944347E+00 -2.343480358560E+00
 O  -3.764550013382E+00 -3.134316989000E-03 -2.343480358560E+00
 O  -5.644128601676E+00  3.253141944347E+00 -2.343480358560E+00
 O  -1.884971425104E+00 -3.259410578309E+00 -2.343480358560E+00
 CE -1.881376200554E+00  1.084380648116E+00 -3.124640478080E+00
 CE -3.760954788827E+00  4.340656909450E+00 -3.124640478080E+00
 CE -1.797612274000E-03 -2.171895613213E+00 -3.124640478080E+00
 CE  1.883173812826E+00  1.087514965098E+00 -3.124640478080E+00
 CE  3.595224548000E-03  4.343791226430E+00 -3.124640478080E+00
 CE  3.762752401110E+00 -2.168761296232E+00 -3.124640478080E+00
 CE -5.645926213979E+00  1.081246331119E+00 -3.124640478080E+00
 CE -7.525504802216E+00  4.337522592471E+00 -3.124640478080E+00
 CE -3.766347625659E+00 -2.175029930200E+00 -3.124640478080E+00
 O   1.881376200554E+00 -1.084380648116E+00 -3.905800597599E+00
 O   1.797612274000E-03  2.171895613213E+00 -3.905800597599E+00
 O   3.760954788827E+00 -4.340656909450E+00 -3.905800597599E+00
 O   5.645926213979E+00 -1.081246331119E+00 -3.905800597599E+00
 O   3.766347625663E+00  2.175029930201E+00 -3.905800597599E+00
 O   7.525504802216E+00 -4.337522592471E+00 -3.905800597599E+00
 O  -1.883173812826E+00 -1.087514965098E+00 -3.905800597599E+00
 O  -3.762752401113E+00  2.168761296231E+00 -3.905800597599E+00
 O  -3.595224549000E-03 -4.343791226431E+00 -3.905800597599E+00
 O  -4.806450678106E+00  7.473129513437E+00  6.656900961286E+00
 H  -5.225854146629E+00  7.672681823354E+00  5.766520030578E+00
 H   1.785710649997E+00 -2.155642727576E+00  6.452095603279E+00
 H  -7.082328688246E+00  7.984516119800E-01  5.975408939550E+00
 O  -7.698461173073E+00  1.550700998265E+00  5.922925051126E+00
 H  -8.524518156749E+00  1.182704892243E+00  5.493194584844E+00
 H  -1.030669299833E+01  7.990785267564E+00  5.659755175320E+00
 O  -5.394633455805E+00 -1.175999780101E+00  5.970721280499E+00
 H  -1.186563188589E+01  8.086798138059E+00  6.050087600372E+00
 O  -3.838170886090E+00  1.615707515306E+00  5.904339206338E+00
 H  -4.683488210167E+00  1.151361155203E+00  5.727811323388E+00
 H  -3.173705209225E+00  9.028004262120E-01  6.032537345452E+00
 O   1.271079557420E-01  1.186133974615E+00  6.382954077494E+00
 H   8.196907833040E-01  1.031910138707E+00  5.697343501103E+00
 H   1.657487305580E-01  2.158261694983E+00  6.590520911489E+00
 H  -1.128344901728E+00  1.618380885360E-01  6.118281760721E+00
 O  -1.858384731345E+00 -5.244361230610E-01  5.994425204130E+00
 H  -1.637383368571E+00 -1.255030551975E+00  6.593036614321E+00
 O  -5.675987064939E+00  5.098968812171E+00  5.979458760987E+00
 H  -4.979349433998E+00  4.421196608396E+00  5.887821001053E+00
 H  -5.239861154732E+00  5.913707962324E+00  6.380581147872E+00
 O  -8.162244863696E+00  3.984102883493E+00  7.165692035587E+00
 H  -7.993648977248E+00  3.068152628652E+00  6.845382966671E+00
 H  -7.508384418687E+00  4.502371187677E+00  6.649394600482E+00
 O  -5.238605034045E+00  1.366071887073E+01  6.648938166411E+00
 H  -5.285140536972E+00  1.383619406685E+01  5.652069333396E+00
 H  -4.289965835128E+00  1.381833093937E+01  6.898147037664E+00
 O  -7.713337223248E+00  1.486971405939E+01  6.007865343578E+00
 H  -6.936952284639E+00  1.444768817270E+01  6.437597853386E+00
 H  -8.376365798681E+00  1.417977073360E+01  5.795102114444E+00
 O  -8.179768688113E+00  1.819067472255E+01  5.246205215980E+00
 O  -7.443583768265E+00  1.736367785940E+01  4.249181762033E+00
  112
CERIA BULK                              
 O  -1.832160693032E+00  1.127306520248E+00  3.928908673966E+00
 O   1.316873115562E+01  5.445818677514E+00  8.730245091198E-01
 O   1.694745038711E+01  5.451199964367E+00  8.649780434789E-01
 O   1.767243908562E+00  1.098659510789E+00  4.159093513899E+00
 O   1.141250589255E+01  4.291339951796E+00  4.096002839299E+00
 O  -5.657634515532E+00  1.076409009467E+00  3.994398365373E+00
 O   1.317545368061E+01  3.218834777067E+00  2.350132445576E+00
 O   1.127886110004E+01  6.581636692750E+00  2.464556016051E+00
 CE  1.857621543876E+00 -1.078229279332E+00  3.256737195245E+00
 CE -7.360098426749E-03  2.160206197072E+00  3.170854635991E+00
 CE  3.752771475228E+00 -4.404319510126E+00  3.327079602565E+00
 CE  5.694009173507E+00 -1.030127111314E+00  3.244755768838E+00
 CE  3.765920111797E+00  2.195207625941E+00  3.246350132420E+00
 CE  7.531973080399E+00 -4.337217543742E+00  3.215909810717E+00
 CE -1.873134763388E+00 -1.081391618365E+00  3.322537588733E+00
 CE -3.750910282323E+00  2.169844751126E+00  3.266257860885E+00
 CE -1.703164604771E-02 -4.354870100076E+00  3.319305729966E+00
 O   2.049231688609E-02 -2.848568695677E-02  2.390314236523E+00
 O  -1.870810119188E+00  3.273828263151E+00  2.392479621620E+00
 O   1.880372564572E+01  4.232266391769E+00  4.130955542799E+00
 O   3.729638237127E+00 -1.089432709762E-02  2.450992887818E+00
 O   1.494725778015E+01  4.310078185255E+00  4.017457432995E+00
 O   1.692034784381E+01  3.267774926735E+00  2.420667570015E+00
 O  -3.751961689349E+00 -4.437896731696E-02  2.448325313550E+00
 O   1.693627131543E+01  7.687284219520E+00  4.146947989659E+00
 O   1.320321431084E+01  7.563832180869E+00  4.155069400762E+00
 O   1.886605818337E+00 -1.097181204971E+00  8.386245448319E-01
 O  -1.245877753407E-02  2.158932577647E+00  8.234429692159E-01
 O   3.761405822537E+00 -4.331480676200E+00  8.462967792058E-01
 O   5.644745179488E+00 -1.055675445143E+00  8.664547610710E-01
 O   3.777427011974E+00  2.157947557895E+00  8.470204642635E-01
 O   1.883450818916E+01  6.541139474689E+00  2.491971704996E+00
 O  -1.884154017587E+00 -1.080411286209E+00  8.507565104403E-01
 O  -3.764624542480E+00  2.155947219558E+00  8.616127086964E-01
 O   1.505614916365E+01  6.563737226857E+00  2.438141812382E+00
 CE -6.408810068594E-03 -1.441992616871E-02  4.428202331031E-02
 CE -1.886810883217E+00  3.263241520576E+00  4.849839723184E-02
 CE  1.880179729214E+00 -3.261211950905E+00  8.276293565243E-02
 CE  3.762860677455E+00  2.728621525505E-03  5.303282590307E-02
 CE  1.886313471480E+00  3.254849884048E+00  3.789373724584E-02
 CE  5.631324363891E+00 -3.248405464500E+00  7.189964290230E-02
 CE -3.757821538533E+00 -3.490014026422E-03  5.180785973172E-02
 CE -5.644089454059E+00  3.255369820365E+00  6.744675275123E-02
 CE -1.880464684230E+00 -3.252084663150E+00  7.128835226986E-02
 O  -1.890058315885E+00  1.082790671369E+00 -7.980329737085E-01
 O  -3.765228662636E+00  4.337979902350E+00 -7.813584448757E-01
 O  -5.892638983252E-03 -2.177636873667E+00 -7.866125450269E-01
 O   1.884568297213E+00  1.084440508356E+00 -7.917783313257E-01
 O   5.038413107791E-03  4.349319462332E+00 -7.864081684085E-01
 O   3.769323435715E+00 -2.165285237389E+00 -7.841192995601E-01
 O  -5.642839530853E+00  1.080695330223E+00 -7.934032206865E-01
 O  -7.529359235056E+00  4.340909018324E+00 -7.784439782135E-01
 O  -3.772675673506E+00 -2.175461898420E+00 -7.789936843682E-01
 O   0.000000000000E+00  0.000000000000E+00 -2.343480358560E+00
 O  -1.879578588277E+00  3.256276261331E+00 -2.343480358560E+00
 O   1.879578588282E+00 -3.256276261326E+00 -2.343480358560E+00
 O   3.764550013382E+00  3.134316978736E-03 -2.343480358560E+00
 O   1.884971425099E+00  3.259410578314E+00 -2.343480358560E+00
 O   5.644128601676E+00 -3.253141944347E+00 -2.343480358560E+00
 O  -3.764550013382E+00 -3.134316988731E-03 -2.343480358560E+00
 O  -5.644128601676E+00  3.253141944347E+00 -2.343480358560E+00
 O  -1.884971425104E+00 -3.259410578309E+00 -2.343480358560E+00
 CE -1.881376200554E+00  1.084380648116E+00 -3.124640478080E+00
 CE -3.760954788827E+00  4.340656909450E+00 -3.124640478080E+00
 CE -1.797612273799E-03 -2.171895613213E+00 -3.124640478080E+00
 CE  1.883173812826E+00  1.087514965098E+00 -3.124640478080E+00
 CE  3.595224547601E-03  4.343791226430E+00 -3.124640478080E+00
 CE  3.762752401110E+00 -2.168761296232E+00 -3.124640478080E+00
 CE -5.645926213979E+00  1.081246331119E+00 -3.124640478080E+00
 CE -7.525504802216E+00  4.337522592471E+00 -3.124640478080E+00
 CE -3.766347625659E+00 -2.175029930200E+00 -3.124640478080E+00
 O   1.881376200554E+00 -1.084380648116E+00 -3.905800597599E+00
 O   1.797612273799E-03  2.171895613213E+00 -3.905800597599E+00
 O   3.760954788827E+00 -4.340656909450E+00 -3.905800597599E+00
 O   5.645926213979E+00 -1.081246331119E+00 -3.905800597599E+00
 O   3.766347625663E+00  2.175029930201E+00 -3.905800597599E+00
 O   7.525504802216E+00 -4.337522592471E+00 -3.905800597599E+00
 O  -1.883173812826E+00 -1.087514965098E+00 -3.905800597599E+00
 O  -3.762752401113E+00  2.168761296231E+00 -3.905800597599E+00
 O  -3.595224548602E-03 -4.343791226431E+00 -3.905800597599E+00
 O  -4.806450678106E+00  7.473129513436E+00  6.656900961286E+00
 H  -5.225854146629E+00  7.672681823354E+00  5.766520030578E+00
 H   1.785710649997E+00 -2.155642727576E+00  6.452095603279E+00
 H  -7.082328688246E+00  7.984516119796E-01  5.975408939550E+00
 O  -7.698461173073E+00  1.550700998266E+00  5.922925051126E+00
 H  -8.524518156749E+00  1.182704892243E+00  5.493194584844E+00
 H  -1.030669299833E+01  7.990785267564E+00  5.659755175320E+00
 O  -5.394633455805E+00 -1.175999780101E+00  5.970721280499E+00
 H  -1.186563188589E+01  8.086798138059E+00  6.050087600373E+00
 O  -3.838170886090E+00  1.615707515306E+00  5.904339206338E+00
 H  -4.683488210167E+00  1.151361155203E+00  5.727811323388E+00
 H  -3.173705209225E+00  9.028004262115E-01  6.032537345452E+00
 O   1.271079557416E-01  1.186133974615E+00  6.382954077494E+00
 H   8.196907833044E-01  1.031910138707E+00  5.697343501103E+00
 H   1.657487305578E-01  2.158261694983E+00  6.590520911489E+00
 H  -1.128344901728E+00  1.618380885360E-01  6.118281760721E+00
 O  -1.858384731345E+00 -5.244361230612E-01  5.994425204130E+00
 H  -1.637383368571E+00 -1.255030551975E+00  6.593036614321E+00
 O  -5.675987064939E+00  5.098968812171E+00  5.979458760987E+00
 H  -4.979349433998E+00  4.421196608396E+00  5.887821001053E+00
 H  -5.239861154732E+00  5.913707962324E+00  6.380581147872E+00
 O  -8.162244863696E+00  3.984102883493E+00  7.165692035587E+00
 H  -7.993648977248E+00  3.068152628652E+00  6.845382966671E+00
 H  -7.508384418687E+00  4.502371187677E+00  6.649394600482E+00
 O  -5.238605034045E+00  1.366071887073E+01  6.648938166411E+00
 H  -5.285140536972E+00  1.383619406685E+01  5.652069333396E+00
 H  -4.289965835128E+00  1.381833093937E+01  6.898147037664E+00
 O  -7.713337223248E+00  1.486971405939E+01  6.007865343578E+00
 H  -6.936952284640E+00  1.444768817270E+01  6.437597853386E+00
 H  -8.376365798681E+00  1.417977073360E+01  5.795102114444E+00
 O  -8.179768688113E+00  1.819067472255E+01  5.246205215980E+00
 O  -7.443583768265E+00  1.736367785940E+01  4.249181762033E+00
  112
CERIA BULK                               E -1.7735104415388E+04 DE 2.4E-08(  7)
 O  -1.832172968436E+00  1.127303806033E+00  3.928878151282E+00
 O   1.316874164721E+01  5.445837327552E+00  8.730364405347E-01
 O   1.694744951996E+01  5.451185376417E+00  8.649652495427E-01
 O   1.767288003862E+00  1.098664801526E+00  4.159052997001E+00
 O   1.141252612592E+01  4.291311942022E+00  4.096067499246E+00
 O  -5.657652220420E+00  1.076407626574E+00  3.994430064988E+00
 O   1.317544073506E+01  3.218856265774E+00  2.350146886957E+00
 O   1.127889056283E+01  6.581643675894E+00  2.464544859527E+00
 CE  1.857635627222E+00 -1.078232551039E+00  3.256731483153E+00
 CE -7.363179560458E-03  2.160214902412E+00  3.170890864103E+00
 CE  3.752805709136E+00 -4.404332936300E+00  3.327051982587E+00
 CE  5.694029199142E+00 -1.030142148349E+00  3.244756650549E+00
 CE  3.765933262963E+00  2.195176942945E+00  3.246360327171E+00
 CE  7.531966851507E+00 -4.337250622674E+00  3.215950761717E+00
 CE -1.873137547006E+00 -1.081410536368E+00  3.322580160708E+00
 CE -3.750897354288E+00  2.169860682371E+00  3.266281456565E+00
 CE -1.702049281235E-02 -4.354863432570E+00  3.319332529578E+00
 O   2.049478706488E-02 -2.849316227770E-02  2.390302676809E+00
 O  -1.870793900120E+00  3.273850357329E+00  2.392486569443E+00
 O   1.880373828332E+01  4.232276279346E+00  4.130982231441E+00
 O   3.729668691700E+00 -1.090352635088E-02  2.450971069440E+00
 O   1.494731056765E+01  4.310064410903E+00  4.017466612793E+00
 O   1.692039367609E+01  3.267766513519E+00  2.420684637416E+00
 O  -3.751963874354E+00 -4.436388331727E-02  2.448356269157E+00
 O   1.693629077049E+01  7.687276500241E+00  4.146950723908E+00
 O   1.320323879745E+01  7.563805057796E+00  4.155082646042E+00
 O   1.886613745798E+00 -1.097175960364E+00  8.385978585226E-01
 O  -1.246585160249E-02  2.158931388040E+00  8.234358988528E-01
 O   3.761407436375E+00 -4.331466007285E+00  8.462808658839E-01
 O   5.644786940232E+00 -1.055678913523E+00  8.664600398504E-01
 O   3.777418894756E+00  2.157948785464E+00  8.470467699192E-01
 O   1.883448997807E+01  6.541129057501E+00  2.491958585720E+00
 O  -1.884136259453E+00 -1.080406133231E+00  8.507964871583E-01
 O  -3.764595881337E+00  2.155936471728E+00  8.616336301031E-01
 O   1.505617762145E+01  6.563717940697E+00  2.438168473540E+00
 CE -6.390584431175E-03 -1.440183388631E-02  4.426250628772E-02
 CE -1.886802685244E+00  3.263235334449E+00  4.849572233861E-02
 CE  1.880192442376E+00 -3.261220276218E+00  8.276804417846E-02
 CE  3.762876830167E+00  2.709501934442E-03  5.304191677277E-02
 CE  1.886309766586E+00  3.254851690796E+00  3.790816259624E-02
 CE  5.631328648552E+00 -3.248377689255E+00  7.189794575171E-02
 CE -3.757813839927E+00 -3.488599316550E-03  5.180957197534E-02
 CE -5.644090461582E+00  3.255372859190E+00  6.745587246654E-02
 CE -1.880467147204E+00 -3.252093468403E+00  7.129565161736E-02
 O  -1.890049151603E+00  1.082781497580E+00 -7.980571773452E-01
 O  -3.765237527653E+00  4.337966548227E+00 -7.813482924895E-01
 O  -5.888008907793E-03 -2.177628409660E+00 -7.866048077204E-01
 O   1.884587070663E+00  1.084453762448E+00 -7.917855513639E-01
 O   5.047296811764E-03  4.349324648881E+00 -7.864081339894E-01
 O   3.769336689847E+00 -2.165275052481E+00 -7.841166125421E-01
 O  -5.642835332896E+00  1.080704298756E+00 -7.933759460852E-01
 O  -7.529366699820E+00  4.340911334330E+00 -7.784341535949E-01
 O  -3.772659593790E+00 -2.175450577636E+00 -7.790111426578E-01
 O   0.000000000000E+00  0.000000000000E+00 -2.343480358560E+00
 O  -1.879581618913E+00  3.256278179402E+00 -2.343480358560E+00
 O   1.879581618918E+00 -3.256278179397E+00 -2.343480358560E+00
 O   3.764552681869E+00  3.132355432463E-03 -2.343480358560E+00
 O   1.884971062950E+00  3.259410534840E+00 -2.343480358560E+00
 O   5.644134300799E+00 -3.253145823965E+00 -2.343480358560E+00
 O  -3.764552681869E+00 -3.132355442457E-03 -2.343480358560E+00
 O  -5.644134300799E+00  3.253145823965E+00 -2.343480358560E+00
 O  -1.884971062955E+00 -3.259410534835E+00 -2.343480358560E+00
 CE -1.881378100262E+00  1.084381941322E+00 -3.124640478080E+00
 CE -3.760959719171E+00  4.340660120728E+00 -3.124640478080E+00
 CE -1.796481345706E-03 -2.171896238079E+00 -3.124640478080E+00
 CE  1.883174581605E+00  1.087514296758E+00 -3.124640478080E+00
 CE  3.592962691415E-03  4.343792476161E+00 -3.124640478080E+00
 CE  3.762756200525E+00 -2.168763882644E+00 -3.124640478080E+00
 CE -5.645930782174E+00  1.081249585871E+00 -3.124640478080E+00
 CE -7.525512401046E+00  4.337527765295E+00 -3.124640478080E+00
 CE -3.766349163218E+00 -2.175028593519E+00 -3.124640478080E+00
 O   1.881378100262E+00 -1.084381941322E+00 -3.905800597599E+00
 O   1.796481345706E-03  2.171896238079E+00 -3.905800597599E+00
 O   3.760959719171E+00 -4.340660120728E+00 -3.905800597599E+00
 O   5.645930782174E+00 -1.081249585871E+00 -3.905800597599E+00
 O   3.766349163222E+00  2.175028593520E+00 -3.905800597599E+00
 O   7.525512401046E+00 -4.337527765295E+00 -3.905800597599E+00
 O  -1.883174581605E+00 -1.087514296758E+00 -3.905800597599E+00
 O  -3.762756200528E+00  2.168763882643E+00 -3.905800597599E+00
 O  -3.592962692415E-03 -4.343792476162E+00 -3.905800597599E+00
 O  -4.806457305385E+00  7.473164768577E+00  6.656933867601E+00
 H  -5.225861055553E+00  7.672730707038E+00  5.766562168960E+00
 H   1.785714214710E+00 -2.155572164578E+00  6.452125845104E+00
 H  -7.082306738924E+00  7.984451272663E-01  5.975426401344E+00
 O  -7.698440822576E+00  1.550684836842E+00  5.922977607372E+00
 H  -8.524482089392E+00  1.182678726345E+00  5.493281438591E+00
 H  -1.030668935295E+01  7.990757624717E+00  5.659750763646E+00
 O  -5.394632386078E+00 -1.176041411835E+00  5.970712725346E+00
 H  -1.186562260071E+01  8.086740883203E+00  6.050074849334E+00
 O  -3.838185195454E+00  1.615687247166E+00  5.904352300935E+00
 H  -4.683501573739E+00  1.151351546428E+00  5.727790843223E+00
 H  -3.173734522432E+00  9.027686859070E-01  6.032568002001E+00
 O   1.270329599839E-01  1.186208195148E+00  6.382853750798E+00
 H   8.196988022590E-01  1.031915424363E+00  5.697347311314E+00
 H   1.657360549925E-01  2.158328632862E+00  6.590443491386E+00
 H  -1.128381939240E+00  1.618766225557E-01  6.118244042159E+00
 O  -1.858384655971E+00 -5.244328086754E-01  5.994424990606E+00
 H  -1.637359768827E+00 -1.254984926295E+00  6.593068263207E+00
 O  -5.675935553227E+00  5.098993254902E+00  5.979430987516E+00
 H  -4.979280114741E+00  4.421232427289E+00  5.887857345035E+00
 H  -5.239822200455E+00  5.913726458283E+00  6.380574898865E+00
 O  -8.162260529017E+00  3.984122468213E+00  7.165629038626E+00
 H  -7.993655971527E+00  3.068173303263E+00  6.845337488036E+00
 H  -7.508430566565E+00  4.502394385755E+00  6.649318471885E+00
 O  -5.238612849503E+00  1.366072936464E+01  6.648987309174E+00
 H  -5.285148541131E+00  1.383623314396E+01  5.652117383848E+00
 H  -4.289978330742E+00  1.381830257159E+01  6.898230606420E+00
 O  -7.713376519827E+00  1.486975310950E+01  6.007906324302E+00
 H  -6.937008055283E+00  1.444769675454E+01  6.437656016203E+00
 H  -8.376404729706E+00  1.417982463772E+01  5.795113813843E+00
 O  -8.179802068326E+00  1.819067895406E+01  5.246201990526E+00
 O  -7.443596178305E+00  1.736367969563E+01  4.249201753209E+00
  112
CERIA BULK                               E -1.7735104433728E+04 DE-1.7E-08(  6)
 O  -1.832172968436E+00  1.127303806033E+00  3.928878151282E+00
 O   1.316874164721E+01  5.445837327552E+00  8.730364405347E-01
 O   1.694744951996E+01  5.451185376417E+00  8.649652495427E-01
 O   1.767288003862E+00  1.098664801526E+00  4.159052997001E+00
 O   1.141252612592E+01  4.291311942022E+00  4.096067499246E+00
 O  -5.657652220420E+00  1.076407626574E+00  3.994430064988E+00
 O   1.317544073506E+01  3.218856265774E+00  2.350146886957E+00
 O   1.127889056283E+01  6.581643675894E+00  2.464544859527E+00
 CE  1.857635627222E+00 -1.078232551039E+00  3.256731483153E+00
 CE -7.363179560458E-03  2.160214902412E+00  3.170890864103E+00
 CE  3.752805709136E+00 -4.404332936300E+00  3.327051982587E+00
 CE  5.694029199142E+00 -1.030142148349E+00  3.244756650549E+00
 CE  3.765933262963E+00  2.195176942945E+00  3.246360327171E+00
 CE  7.531966851507E+00 -4.337250622674E+00  3.215950761717E+00
 CE -1.873137547006E+00 -1.081410536368E+00  3.322580160708E+00
 CE -3.750897354288E+00  2.169860682371E+00  3.266281456565E+00
 CE -1.702049281235E-02 -4.354863432570E+00  3.319332529578E+00
 O   2.049478706488E-02 -2.849316227770E-02  2.390302676809E+00
 O  -1.870793900120E+00  3.273850357329E+00  2.392486569443E+00
 O   1.880373828332E+01  4.232276279346E+00  4.130982231441E+00
 O   3.729668691700E+00 -1.090352635088E-02  2.450971069440E+00
 O   1.494731056765E+01  4.310064410903E+00  4.017466612793E+00
 O   1.692039367609E+01  3.267766513519E+00  2.420684637416E+00
 O  -3.751963874354E+00 -4.436388331727E-02  2.448356269157E+00
 O   1.693629077049E+01  7.687276500241E+00  4.146950723908E+00
 O   1.320323879745E+01  7.563805057796E+00  4.155082646042E+00
 O   1.886613745798E+00 -1.097175960364E+00  8.385978585226E-01
 O  -1.246585160249E-02  2.158931388040E+00  8.234358988528E-01
 O   3.761407436375E+00 -4.331466007285E+00  8.462808658839E-01
 O   5.644786940232E+00 -1.055678913523E+00  8.664600398504E-01
 O   3.777418894756E+00  2.157948785464E+00  8.470467699192E-01
 O   1.883448997807E+01  6.541129057501E+00  2.491958585720E+00
 O  -1.884136259453E+00 -1.080406133231E+00  8.507964871583E-01
 O  -3.764595881337E+00  2.155936471728E+00  8.616336301031E-01
 O   1.505617762145E+01  6.563717940697E+00  2.438168473540E+00
 CE -6.390584431175E-03 -1.440183388631E-02  4.426250628772E-02
 CE -1.886802685244E+00  3.263235334449E+00  4.849572233861E-02
 CE  1.880192442376E+00 -3.261220276218E+00  8.276804417846E-02
 CE  3.762876830167E+00  2.709501934442E-03  5.304191677277E-02
 CE  1.886309766586E+00  3.254851690796E+00  3.790816259624E-02
 CE  5.631328648552E+00 -3.248377689255E+00  7.189794575171E-02
 CE -3.757813839927E+00 -3.488599316550E-03  5.180957197534E-02
 CE -5.644090461582E+00  3.255372859190E+00  6.745587246654E-02
 CE -1.880467147204E+00 -3.252093468403E+00  7.129565161736E-02
 O  -1.890049151603E+00  1.082781497580E+00 -7.980571773452E-01
 O  -3.765237527653E+00  4.337966548227E+00 -7.813482924895E-01
 O  -5.888008907793E-03 -2.177628409660E+00 -7.866048077204E-01
 O   1.884587070663E+00  1.084453762448E+00 -7.917855513639E-01
 O   5.047296811764E-03  4.349324648881E+00 -7.864081339894E-01
 O   3.769336689847E+00 -2.165275052481E+00 -7.841166125421E-01
 O  -5.642835332896E+00  1.080704298756E+00 -7.933759460852E-01
 O  -7.529366699820E+00  4.340911334330E+00 -7.784341535949E-01
 O  -3.772659593790E+00 -2.175450577636E+00 -7.790111426578E-01
 O   0.000000000000E+00  0.000000000000E+00 -2.343480358560E+00
 O  -1.879581618913E+00  3.256278179402E+00 -2.343480358560E+00
 O   1.879581618918E+00 -3.256278179397E+00 -2.343480358560E+00
 O   3.764552681869E+00  3.132355432463E-03 -2.343480358560E+00
 O   1.884971062950E+00  3.259410534840E+00 -2.343480358560E+00
 O   5.644134300799E+00 -3.253145823965E+00 -2.343480358560E+00
 O  -3.764552681869E+00 -3.132355442457E-03 -2.343480358560E+00
 O  -5.644134300799E+00  3.253145823965E+00 -2.343480358560E+00
 O  -1.884971062955E+00 -3.259410534835E+00 -2.343480358560E+00
 CE -1.881378100262E+00  1.084381941322E+00 -3.124640478080E+00
 CE -3.760959719171E+00  4.340660120728E+00 -3.124640478080E+00
 CE -1.796481345706E-03 -2.171896238079E+00 -3.124640478080E+00
 CE  1.883174581605E+00  1.087514296758E+00 -3.124640478080E+00
 CE  3.592962691415E-03  4.343792476161E+00 -3.124640478080E+00
 CE  3.762756200525E+00 -2.168763882644E+00 -3.124640478080E+00
 CE -5.645930782174E+00  1.081249585871E+00 -3.124640478080E+00
 CE -7.525512401046E+00  4.337527765295E+00 -3.124640478080E+00
 CE -3.766349163218E+00 -2.175028593519E+00 -3.124640478080E+00
 O   1.881378100262E+00 -1.084381941322E+00 -3.905800597599E+00
 O   1.796481345706E-03  2.171896238079E+00 -3.905800597599E+00
 O   3.760959719171E+00 -4.340660120728E+00 -3.905800597599E+00
 O   5.645930782174E+00 -1.081249585871E+00 -3.905800597599E+00
 O   3.766349163222E+00  2.175028593520E+00 -3.905800597599E+00
 O   7.525512401046E+00 -4.337527765295E+00 -3.905800597599E+00
 O  -1.883174581605E+00 -1.087514296758E+00 -3.905800597599E+00
 O  -3.762756200528E+00  2.168763882643E+00 -3.905800597599E+00
 O  -3.592962692415E-03 -4.343792476162E+00 -3.905800597599E+00
 O  -4.806457305385E+00  7.473164768577E+00  6.656933867601E+00
 H  -5.225861055553E+00  7.672730707038E+00  5.766562168960E+00
 H   1.785714214710E+00 -2.155572164578E+00  6.452125845104E+00
 H  -7.082306738924E+00  7.984451272663E-01  5.975426401344E+00
 O  -7.698440822576E+00  1.550684836842E+00  5.922977607372E+00
 H  -8.524482089392E+00  1.182678726345E+00  5.493281438591E+00
 H  -1.030668935295E+01  7.990757624717E+00  5.659750763646E+00
 O  -5.394632386078E+00 -1.176041411835E+00  5.970712725346E+00
 H  -1.186562260071E+01  8.086740883203E+00  6.050074849334E+00
 O  -3.838185195454E+00  1.615687247166E+00  5.904352300935E+00
 H  -4.683501573739E+00  1.151351546428E+00  5.727790843223E+00
 H  -3.173734522432E+00  9.027686859070E-01  6.032568002001E+00
 O   1.270329599839E-01  1.186208195148E+00  6.382853750798E+00
 H   8.196988022590E-01  1.031915424363E+00  5.697347311314E+00
 H   1.657360549925E-01  2.158328632862E+00  6.590443491386E+00
 H  -1.128381939240E+00  1.618766225557E-01  6.118244042159E+00
 O  -1.858384655971E+00 -5.244328086754E-01  5.994424990606E+00
 H  -1.637359768827E+00 -1.254984926295E+00  6.593068263207E+00
 O  -5.675935553227E+00  5.098993254902E+00  5.979430987516E+00
 H  -4.979280114741E+00  4.421232427289E+00  5.887857345035E+00
 H  -5.239822200455E+00  5.913726458283E+00  6.380574898865E+00
 O  -8.162260529017E+00  3.984122468213E+00  7.165629038626E+00
 H  -7.993655971527E+00  3.068173303263E+00  6.845337488036E+00
 H  -7.508430566565E+00  4.502394385755E+00  6.649318471885E+00
 O  -5.238612849503E+00  1.366072936464E+01  6.648987309174E+00
 H  -5.285148541131E+00  1.383623314396E+01  5.652117383848E+00
 H  -4.289978330742E+00  1.381830257159E+01  6.898230606420E+00
 O  -7.713376519827E+00  1.486975310950E+01  6.007906324302E+00
 H  -6.937008055283E+00  1.444769675454E+01  6.437656016203E+00
 H  -8.376404729706E+00  1.417982463772E+01  5.795113813843E+00
 O  -8.179802068326E+00  1.819067895406E+01  5.246201990526E+00
 O  -7.443596178305E+00  1.736367969563E+01  4.249201753209E+00
