  111
Ceria bulk                              
 O  -2.028736727406E+00  1.133811938460E+00  4.134634142425E+00
 O  -3.676843555662E+00  4.334092446518E+00  4.179773291959E+00
 O   1.798061867100E-02 -2.126161705085E+00  4.076617566300E+00
 O   2.069402661977E+00  9.999518855820E-01  4.099431655147E+00
 O   1.803998350700E-02  4.519650451794E+00  4.132061755499E+00
 O   3.961932020652E+00 -2.159864618817E+00  4.016288030911E+00
 O  -5.760915573870E+00  1.137246603362E+00  4.273590193746E+00
 O  -3.950059253466E+00 -2.214246809426E+00  4.107887347006E+00
 CE  1.909499262957E+00 -1.131868912224E+00  3.354595974258E+00
 CE  7.437178360000E-04  2.200877491955E+00  3.361854557498E+00
 CE  3.845248641162E+00 -4.416356894693E+00  3.335774510316E+00
 CE  5.710791703369E+00 -1.123628244865E+00  3.194716862768E+00
 CE  3.829992957501E+00  2.027616994962E+00  3.166049051834E+00
 CE  7.517089386946E+00 -4.322396004667E+00  3.119796672438E+00
 CE -1.902051886888E+00 -1.066273005249E+00  3.344605456633E+00
 CE -3.791064259838E+00  2.225809214563E+00  3.253703848379E+00
 CE  1.156466789490E-01 -4.358972993893E+00  3.329350099472E+00
 O  -1.386404159100E-02  1.739719834500E-02  2.493611051507E+00
 O  -1.901373162250E+00  3.333401579673E+00  2.447764318815E+00
 O   1.988286689929E+00 -3.313483586805E+00  2.518348852103E+00
 O   3.866968762663E+00 -2.643992051100E-02  2.375044182568E+00
 O   2.117269707516E+00  3.413345599500E+00  2.622815765477E+00
 O   5.714669513680E+00 -3.320783124863E+00  2.354606481197E+00
 O  -3.858556065194E+00  3.454517908600E-02  2.447094200509E+00
 O  -5.800913983485E+00  3.291674656642E+00  2.519619352759E+00
 O  -1.962312941420E+00 -3.434123526207E+00  2.608452030614E+00
 O   1.900884873250E+00 -1.111376613141E+00  8.850393444550E-01
 O   8.312207812300E-02  2.247451631103E+00  9.088169364940E-01
 O   3.822304978301E+00 -4.417135844854E+00  8.452181489580E-01
 O   5.737016701745E+00 -1.125943802113E+00  8.179668324430E-01
 O   3.792442715244E+00  2.163580150701E+00  8.343074831770E-01
 O   7.617597544232E+00 -4.418223445396E+00  8.300158594930E-01
 O  -1.908112237917E+00 -1.149657184053E+00  9.268213028400E-01
 O  -3.829111900026E+00  2.239545683620E+00  8.975472385380E-01
 O   3.012074251900E-02 -4.384133274207E+00  8.734425706680E-01
 CE  1.328300938300E-02 -4.351336450000E-04  1.093054636340E-01
 CE -1.901043792565E+00  3.322199399802E+00  7.890966771300E-02
 CE  1.917141994980E+00 -3.310057931724E+00  6.720254548900E-02
 CE  3.811220188649E+00 -2.534804863700E-02  1.117720213300E-02
 CE  1.905832444996E+00  3.290398334189E+00  3.953619639300E-02
 CE  5.713279297657E+00 -3.317860184110E+00 -1.816087470000E-03
 CE -3.804648934664E+00  9.997720296000E-03  5.644294465100E-02
 CE -5.721368399904E+00  3.331786556481E+00  6.142170802500E-02
 CE -1.878764332460E+00 -3.293401779393E+00  5.322288287200E-02
 O  -1.892559982098E+00  1.103649369898E+00 -7.125176911620E-01
 O  -3.829116891120E+00  4.406435196251E+00 -7.604630584280E-01
 O  -1.152015209000E-03 -2.193150094462E+00 -7.540419323140E-01
 O   1.900711884441E+00  1.088335742236E+00 -7.710496990390E-01
 O  -7.984014293000E-03  4.395754702359E+00 -7.792929918230E-01
 O   3.813148471779E+00 -2.210452410160E+00 -7.830302925010E-01
 O  -5.708029606320E+00  1.128640395404E+00 -7.638571868000E-01
 O  -7.630224725661E+00  4.429425073174E+00 -7.545514525720E-01
 O  -3.785242843385E+00 -2.185241022261E+00 -7.751126608880E-01
 O   0.000000000000E+00  0.000000000000E+00 -2.343480358560E+00
 O  -1.916702082470E+00  3.307795658210E+00 -2.343480358560E+00
 O   1.916702082475E+00 -3.307795658205E+00 -2.343480358560E+00
 O   3.813420608837E+00 -1.154861938800E-02 -2.343480358560E+00
 O   1.896718526365E+00  3.296247038830E+00 -2.343480358560E+00
 O   5.730122691321E+00 -3.319344277591E+00 -2.343480358560E+00
 O  -3.813420608837E+00  1.154861937900E-02 -2.343480358560E+00
 O  -5.730122691321E+00  3.319344277591E+00 -2.343480358560E+00
 O  -1.896718526371E+00 -3.296247038825E+00 -2.343480358560E+00
 CE -1.910040897105E+00  1.106448092530E+00 -3.124640478080E+00
 CE -3.826742979565E+00  4.414243750745E+00 -3.124640478080E+00
 CE  6.661185369000E-03 -2.201347565677E+00 -3.124640478080E+00
 CE  1.903379711736E+00  1.094899473147E+00 -3.124640478080E+00
 CE -1.332237073500E-02  4.402695131362E+00 -3.124640478080E+00
 CE  3.820081794207E+00 -2.212896185064E+00 -3.124640478080E+00
 CE -5.723461505980E+00  1.117996711900E+00 -3.124640478080E+00
 CE -7.640163588411E+00  4.425792370133E+00 -3.124640478080E+00
 CE -3.806759423472E+00 -2.189798946299E+00 -3.124640478080E+00
 O   1.910040897105E+00 -1.106448092530E+00 -3.905800597599E+00
 O  -6.661185369000E-03  2.201347565677E+00 -3.905800597599E+00
 O   3.826742979565E+00 -4.414243750745E+00 -3.905800597599E+00
 O   5.723461505980E+00 -1.117996711900E+00 -3.905800597599E+00
 O   3.806759423476E+00  2.189798946299E+00 -3.905800597599E+00
 O   7.640163588411E+00 -4.425792370133E+00 -3.905800597599E+00
 O  -1.903379711736E+00 -1.094899473147E+00 -3.905800597599E+00
 O  -3.820081794209E+00  2.212896185063E+00 -3.905800597599E+00
 O   1.332237073400E-02 -4.402695131362E+00 -3.905800597599E+00
 O   1.731383427685E+00  4.675048412580E+00  6.026823053321E+00
 H   9.064628449550E-01  4.563732288230E+00  5.413568740406E+00
 H   7.337999728070E+00 -4.418870772951E+00  6.540302716665E+00
 H  -9.025438001390E-01 -1.957896464590E+00  5.798612485948E+00
 O  -1.695672613079E+00 -1.415177529395E+00  5.998592568588E+00
 H  -2.362577117603E+00 -1.960093930543E+00  6.448047039611E+00
 H  -4.333880351020E+00  4.963263087736E+00  5.640204950286E+00
 O   6.814942472950E-01 -4.449508965492E+00  6.091846503962E+00
 H  -5.576130955342E+00  4.785851799947E+00  6.562255847162E+00
 O   2.067571000024E+00 -1.740283886355E+00  5.951000477132E+00
 H   1.406948763817E+00 -2.426633753823E+00  6.165897486810E+00
 H   2.926010019812E+00 -2.208928519579E+00  6.015993827236E+00
 O   6.653596050555E+00 -2.666433120014E+00  6.591700500810E+00
 H   6.985285588365E+00 -2.496128945517E+00  5.655269988567E+00
 H   6.551510933005E+00 -1.738889958687E+00  6.943361752753E+00
 H   4.959068524259E+00 -3.470604115895E+00  6.349998976460E+00
 O   4.092000463545E+00 -3.910967792923E+00  6.155738378602E+00
 H   3.993973287606E+00 -4.646523867589E+00  6.780811639697E+00
 O   5.146920791600E-01  1.934668960054E+00  6.044508637106E+00
 H   1.291460360200E+00  1.410690217759E+00  5.724114928881E+00
 H   8.846199640800E-01  2.718729989715E+00  6.488828138812E+00
 O   6.500054536608E+00  4.655895732100E-02  6.880845938607E+00
 H  -5.303791857249E+00  4.081262741400E-01  6.027520419960E+00
 H  -4.075797020161E+00  5.580448846600E-01  6.978165254573E+00
 O   4.774318062068E+00  3.012559870357E+00  6.221566388283E+00
 O   4.014252490546E+00  3.747630536536E+00  5.159426599912E+00
 H   5.178963462920E+00  2.269049153972E+00  5.673210066153E+00
 H   3.171165922637E+00  4.033425942770E+00  5.651662015317E+00
 O   3.109435217504E+00  1.143927736059E+01  6.795099694387E+00
 H   3.425538324567E+00  1.122693924694E+01  5.874704892744E+00
 H   3.850740047541E+00  1.116700621847E+01  7.358584920725E+00
