  115
CERIA BULK                              
 O  -1.913862231416E+00  1.030689851148E+00  3.937127568539E+00
 O   1.320005768424E+01  5.466309185955E+00  8.465009854260E-01
 O   1.700519318404E+01  5.451579703577E+00  8.691781308400E-01
 O   1.810303494732E+00  1.099902894359E+00  3.997668800785E+00
 O   1.119343589290E+01  4.320592787748E+00  4.075856677440E+00
 O  -5.677313167694E+00  1.005295013736E+00  4.320221489361E+00
 O   1.317798744403E+01  3.350231098706E+00  2.464055585800E+00
 O   1.127752621626E+01  6.521769830939E+00  2.398991643294E+00
 CE  1.823401042708E+00 -1.023369042279E+00  3.264077322905E+00
 CE -1.480986041900E-02  2.173732376795E+00  3.230136241647E+00
 CE  3.767808240228E+00 -4.383704491267E+00  3.176788335997E+00
 CE  5.651602116410E+00 -1.156414002804E+00  3.204633578716E+00
 CE  3.762917170296E+00  2.234914288800E+00  3.284226156089E+00
 CE  7.536833055471E+00 -4.350481004066E+00  3.306470331940E+00
 CE -1.900695697276E+00 -1.106087591909E+00  3.193997527282E+00
 CE -3.725219989038E+00  2.177318310129E+00  3.275959132654E+00
 CE  9.134736532000E-03 -4.325005087035E+00  3.167028970867E+00
 O  -5.067303198000E-03 -1.955448636100E-02  2.405828685857E+00
 O  -1.917818031177E+00  3.250563525474E+00  2.403353746345E+00
 O   1.891720640541E+01  4.444089508586E+00  4.074841629542E+00
 O   3.786538611613E+00 -6.294948116800E-02  2.466728325350E+00
 O   1.522415330222E+01  4.508170697387E+00  4.086452169205E+00
 O   1.706991579493E+01  3.234346686004E+00  2.455830877215E+00
 O  -3.860100019527E+00  2.342023767300E-02  2.439820920148E+00
 O   1.695717373702E+01  7.595145433590E+00  3.985854515354E+00
 O   1.321858651982E+01  7.614633628128E+00  3.998819121070E+00
 O   1.874828935486E+00 -1.058752675860E+00  8.538143784680E-01
 O   5.138250553000E-03  2.176534507845E+00  8.688757254360E-01
 O   3.756901770685E+00 -4.370322733217E+00  8.390734583390E-01
 O   5.660046845804E+00 -1.100967493025E+00  8.361169381190E-01
 O   3.770969030894E+00  2.185952149638E+00  8.726140985860E-01
 O   1.893122546962E+01  6.611596275601E+00  2.410086262102E+00
 O  -1.913177762877E+00 -1.068490970060E+00  8.602758513170E-01
 O  -3.753015730406E+00  2.159006632751E+00  8.405339395380E-01
 O   1.508817254841E+01  6.554022205145E+00  2.367049641807E+00
 CE  1.861587474000E-03  5.918669164000E-03  2.900404008000E-02
 CE -1.888464248344E+00  3.251065285488E+00  1.987371519300E-02
 CE  1.886784398474E+00 -3.249042012905E+00  3.240401124300E-02
 CE  3.765292871630E+00  1.073592189000E-02  6.264930732100E-02
 CE  1.893889908349E+00  3.276078760000E+00  5.718229140900E-02
 CE  5.657403804729E+00 -3.266537833865E+00  2.438290304700E-02
 CE -3.784044060848E+00 -8.964689780000E-04  3.994610442000E-02
 CE -5.649534424453E+00  3.243325240563E+00  4.961276294400E-02
 CE -1.907410950506E+00 -3.268491505822E+00  3.808683419600E-02
 O  -1.880553363813E+00  1.083594932738E+00 -7.847043679230E-01
 O  -3.775192487849E+00  4.346377065355E+00 -7.780366622220E-01
 O  -8.642710702000E-03 -2.176423373395E+00 -7.652491861210E-01
 O   1.885855272019E+00  1.098672604183E+00 -7.711720932730E-01
 O   3.796667587000E-03  4.344358235060E+00 -7.793414940760E-01
 O   3.759980044836E+00 -2.171529316131E+00 -7.696341796860E-01
 O  -5.666087507239E+00  1.082310787225E+00 -7.653612575550E-01
 O  -7.535237529417E+00  4.342978091783E+00 -7.624676948670E-01
 O  -3.775456421799E+00 -2.180802704028E+00 -7.823811958170E-01
 O   0.000000000000E+00  0.000000000000E+00 -2.343480358560E+00
 O  -1.882406888562E+00  3.261739648261E+00 -2.343480358560E+00
 O   1.882406888567E+00 -3.261739648256E+00 -2.343480358560E+00
 O   3.773205140975E+00  4.913315839000E-03 -2.343480358560E+00
 O   1.890798252405E+00  3.266652964107E+00 -2.343480358560E+00
 O   5.655612029551E+00 -3.256826332417E+00 -2.343480358560E+00
 O  -3.773205140975E+00 -4.913315849000E-03 -2.343480358560E+00
 O  -5.655612029551E+00  3.256826332417E+00 -2.343480358560E+00
 O  -1.890798252410E+00 -3.266652964102E+00 -2.343480358560E+00
 CE -1.885204009847E+00  1.085608777471E+00 -3.124640478080E+00
 CE -3.767610898404E+00  4.347348425737E+00 -3.124640478080E+00
 CE -2.797121279000E-03 -2.176130870786E+00 -3.124640478080E+00
 CE  1.888001131127E+00  1.090522093316E+00 -3.124640478080E+00
 CE  5.594242563000E-03  4.352261741578E+00 -3.124640478080E+00
 CE  3.770408019694E+00 -2.171217554945E+00 -3.124640478080E+00
 CE -5.658409150863E+00  1.080695461613E+00 -3.124640478080E+00
 CE -7.540816039385E+00  4.342435109897E+00 -3.124640478080E+00
 CE -3.776002262258E+00 -2.181044186635E+00 -3.124640478080E+00
 O   1.885204009847E+00 -1.085608777471E+00 -3.905800597599E+00
 O   2.797121279000E-03  2.176130870786E+00 -3.905800597599E+00
 O   3.767610898404E+00 -4.347348425737E+00 -3.905800597599E+00
 O   5.658409150863E+00 -1.080695461613E+00 -3.905800597599E+00
 O   3.776002262262E+00  2.181044186636E+00 -3.905800597599E+00
 O   7.540816039385E+00 -4.342435109897E+00 -3.905800597599E+00
 O  -1.888001131127E+00 -1.090522093316E+00 -3.905800597599E+00
 O  -3.770408019697E+00  2.171217554944E+00 -3.905800597599E+00
 O  -5.594242564000E-03 -4.352261741579E+00 -3.905800597599E+00
 O   6.509284364305E+00  1.920387313732E+01  6.663258469661E+00
 H   1.828368894830E-01 -8.976937043920E+00  5.254721704549E+00
 H   7.380901117817E+00  1.875068405642E+01  6.645065162224E+00
 H   5.839000611206E+00  1.852365046622E+01  6.438721963083E+00
 O   1.957160541393E+00 -5.105171389556E+00  6.665421898362E+00
 H   1.938614026537E+00 -5.106157516483E+00  5.656679453122E+00
 H   1.096338791040E+00 -4.716054949199E+00  6.917979232944E+00
 O   5.308356381079E+00 -8.105851334060E+00  5.921435972629E+00
 H   5.173801417332E+00 -7.264499359518E+00  6.428663925906E+00
 H   4.408779164138E+00 -8.406879337777E+00  5.653248176748E+00
 O  -6.353660019868E+00 -5.518897845727E+00  6.650853436473E+00
 H  -6.240267959167E+00 -5.448113208162E+00  5.653523899857E+00
 H   4.079006555563E+00 -5.161547094165E+00  6.879232543007E+00
 H  -1.077875986238E+01  1.805237690759E+01  5.704799576905E+00
 O  -1.009779103548E+01  1.873370228396E+01  5.888478912540E+00
 H  -1.058829455547E+01  1.957488376524E+01  6.021436620799E+00
 H   1.947713170279E+00 -6.788889000833E+00  6.418200022021E+00
 O   2.077551167995E+00 -7.650321179515E+00  5.934439076383E+00
 H   1.703261766578E+00 -8.380352029624E+00  6.458455394121E+00
 H  -2.481361514207E+00 -7.967524310848E+00  6.768037567335E+00
 O  -2.796999892171E+00 -7.487718200344E+00  5.988253414611E+00
 H  -3.417549101504E+00 -8.098851798009E+00  5.484842275094E+00
 O  -9.309889955480E-01 -4.220138497124E+00  6.463215803451E+00
 H  -1.329103705371E+00 -4.685730948295E+00  5.669906974560E+00
 H  -1.586195061007E+00 -4.383626607342E+00  7.160976965637E+00
 H  -1.726605018838E+00 -2.371936428335E+00  6.255383577302E+00
 O   3.348982895279E+00 -1.140571572080E+01  5.983083350617E+00
 H  -3.010051881317E+00 -2.041919885121E+00  5.413702775395E+00
 H  -3.417046747450E+00 -5.711816574729E+00  6.050791038494E+00
 H  -4.631504245552E+00 -4.794608432888E+00  6.410603166468E+00
 O  -3.742605925474E+00 -4.783197997839E+00  5.990118748700E+00
 O   1.034065306968E+01  7.378263129186E+00  6.638400000000E+00
 O   9.346034630908E+00  7.449139236626E+00  5.541200000000E+00
 H   8.424259132462E+00  7.477022878087E+00  5.928000000000E+00
 H   1.126231537197E+01  7.350379340326E+00  6.251600000000E+00
