  115
CERIA BULK                              
 O  -1.886466881879E+00  1.021542877382E+00  3.946287050650E+00
 O   1.312307825723E+01  5.449297575251E+00  9.295062247120E-01
 O   1.693009586089E+01  5.462452662448E+00  9.873760409430E-01
 O   1.767475290515E+00  1.009851336459E+00  4.083599663692E+00
 O   1.119821444174E+01  4.385930233172E+00  4.010122305637E+00
 O  -5.572141433736E+00  9.662139453190E-01  4.435648895399E+00
 O   1.311297101889E+01  3.285103565994E+00  2.517945042716E+00
 O   1.116781288483E+01  6.580479307159E+00  2.452393659749E+00
 CE  1.757335868914E+00 -9.852486707020E-01  3.163664557603E+00
 CE -1.310245157400E-02  2.179156969512E+00  3.298662822946E+00
 CE  3.775740192601E+00 -4.436106994137E+00  3.176548313168E+00
 CE  5.706070023568E+00 -1.084023131401E+00  3.116821188822E+00
 CE  3.747747036724E+00  2.197393013810E+00  3.357949796225E+00
 CE  7.500955111565E+00 -4.371096660184E+00  3.317712957606E+00
 CE -1.881819581190E+00 -1.073545580151E+00  3.284522202564E+00
 CE -3.702946201851E+00  2.200597840559E+00  3.339750116413E+00
 CE -8.496467950000E-03 -4.330217212934E+00  3.264964822396E+00
 O  -3.295456288200E-02 -2.756590871900E-02  2.413283880140E+00
 O  -1.910293828612E+00  3.251802783292E+00  2.461369625386E+00
 O   1.879930642883E+01  4.470153495181E+00  4.137927195225E+00
 O   3.783508661350E+00 -1.611760656690E-01  2.602438835602E+00
 O   1.510473057589E+01  4.463886664638E+00  4.023727827204E+00
 O   1.699473835284E+01  3.203067975726E+00  2.538843558640E+00
 O  -3.806307832077E+00  2.168311599000E-03  2.476331964482E+00
 O   1.689485281814E+01  7.612353323206E+00  4.122065419005E+00
 O   1.292875096719E+01  7.561137622928E+00  4.218744991487E+00
 O   1.863790395990E+00 -1.043789027821E+00  8.701307393600E-01
 O  -2.507652078000E-03  2.174083751328E+00  8.972022924930E-01
 O   3.738514423485E+00 -4.375245097717E+00  8.726423359860E-01
 O   5.644781806804E+00 -1.064487076470E+00  8.511126851750E-01
 O   3.760319485917E+00  2.131752227848E+00  9.410447191320E-01
 O   1.893128613822E+01  6.655060062906E+00  2.553492992820E+00
 O  -1.902552047387E+00 -1.064858137232E+00  8.825758698660E-01
 O  -3.734388697029E+00  2.155450031288E+00  8.824207731240E-01
 O   1.496900482920E+01  6.610169271171E+00  2.488420427850E+00
 CE -1.481665265800E-02  1.341184329000E-02  8.394999680000E-03
 CE -1.879173128934E+00  3.244822237466E+00  1.719786352500E-02
 CE  1.878500681405E+00 -3.250247338476E+00  2.716864583800E-02
 CE  3.751494010434E+00  1.825985579500E-02  1.834256786900E-02
 CE  1.881844987942E+00  3.259000122750E+00  7.370430755200E-02
 CE  5.631704076147E+00 -3.266745453545E+00  1.390390970700E-02
 CE -3.745293539811E+00  1.208042700500E-02  1.282068145700E-02
 CE -5.622264152427E+00  3.242627478279E+00  7.682961324100E-02
 CE -1.892878371604E+00 -3.249957629543E+00  6.082676899000E-02
 O  -1.873274724332E+00  1.090310488398E+00 -7.562597685530E-01
 O  -3.775259809470E+00  4.352524296218E+00 -7.203958463950E-01
 O  -4.764217186000E-03 -2.185779973594E+00 -7.158074605670E-01
 O   1.882709003642E+00  1.103127759198E+00 -7.339205348980E-01
 O   1.075040143700E-02  4.345133987804E+00 -7.285104302640E-01
 O   3.745164412351E+00 -2.170200411134E+00 -7.221206036630E-01
 O  -5.638811106368E+00  1.098682201265E+00 -7.331622656020E-01
 O  -7.492422132814E+00  4.344579669955E+00 -6.800686702290E-01
 O  -3.754881047118E+00 -2.185665751566E+00 -7.321636206940E-01
 O   0.000000000000E+00  0.000000000000E+00 -2.343480358560E+00
 O  -1.875349616382E+00  3.257335300667E+00 -2.343480358560E+00
 O   1.875349616387E+00 -3.257335300663E+00 -2.343480358560E+00
 O   3.754594598638E+00  2.298640373000E-03 -2.343480358560E+00
 O   1.879244982246E+00  3.259633941048E+00 -2.343480358560E+00
 O   5.629944215034E+00 -3.255036660289E+00 -2.343480358560E+00
 O  -3.754594598638E+00 -2.298640383000E-03 -2.343480358560E+00
 O  -5.629944215034E+00  3.255036660289E+00 -2.343480358560E+00
 O  -1.879244982251E+00 -3.259633941043E+00 -2.343480358560E+00
 CE -1.876648071675E+00  1.085012220095E+00 -3.124640478080E+00
 CE -3.751997688052E+00  4.342347520768E+00 -3.124640478080E+00
 CE -1.298455286000E-03 -2.172323080569E+00 -3.124640478080E+00
 CE  1.877946526962E+00  1.087310860474E+00 -3.124640478080E+00
 CE  2.596910576000E-03  4.344646161143E+00 -3.124640478080E+00
 CE  3.753296143349E+00 -2.170024440194E+00 -3.124640478080E+00
 CE -5.631242670352E+00  1.082713579703E+00 -3.124640478080E+00
 CE -7.506592286696E+00  4.340048880394E+00 -3.124640478080E+00
 CE -3.755893053927E+00 -2.174621720952E+00 -3.124640478080E+00
 O   1.876648071675E+00 -1.085012220095E+00 -3.905800597599E+00
 O   1.298455286000E-03  2.172323080569E+00 -3.905800597599E+00
 O   3.751997688052E+00 -4.342347520768E+00 -3.905800597599E+00
 O   5.631242670352E+00 -1.082713579703E+00 -3.905800597599E+00
 O   3.755893053931E+00  2.174621720953E+00 -3.905800597599E+00
 O   7.506592286696E+00 -4.340048880394E+00 -3.905800597599E+00
 O  -1.877946526962E+00 -1.087310860474E+00 -3.905800597599E+00
 O  -3.753296143352E+00  2.170024440193E+00 -3.905800597599E+00
 O  -2.596910577000E-03 -4.344646161144E+00 -3.905800597599E+00
 O   6.930091113775E+00  1.968737622263E+01  7.045113898611E+00
 H   2.244061032000E-01 -8.950902982681E+00  5.389331861712E+00
 H   7.726776423170E+00  1.912467215948E+01  6.860588547037E+00
 H   6.729063966813E+00  1.961225707054E+01  7.995084004593E+00
 O   2.685371863291E+00 -4.880603632928E+00  6.612894107696E+00
 H   2.249901302690E+00 -4.926192166923E+00  5.708564269520E+00
 H   2.104699810795E+00 -4.390991972140E+00  7.217872984993E+00
 O   5.279645565490E+00 -7.671848204120E+00  5.846833538595E+00
 H   5.357848285480E+00 -6.879453755134E+00  6.437364682665E+00
 H   4.341652463879E+00 -7.955440354463E+00  5.892975253075E+00
 O  -5.868626073130E+00 -5.422251975574E+00  7.390663145557E+00
 H  -6.733013969893E+00 -5.015711517767E+00  7.153733792710E+00
 H   5.428480425960E+00 -5.478789406280E+00  8.363629420292E+00
 H  -1.032906158757E+01  1.750117976471E+01  5.438153488448E+00
 O  -9.436029337172E+00  1.777487621629E+01  5.853922954614E+00
 H  -9.601223945646E+00  1.830845205356E+01  6.647859550664E+00
 H   2.351210558945E+00 -6.639173203225E+00  6.432420878663E+00
 O   2.305434522542E+00 -7.486514289368E+00  5.933327423534E+00
 H   1.944640724934E+00 -8.203200460349E+00  6.522560058834E+00
 H  -2.478471151740E+00 -7.703404924684E+00  6.941756159070E+00
 O  -2.704820162194E+00 -7.481481735327E+00  6.024112236371E+00
 H  -3.417881006411E+00 -8.092842992621E+00  5.702711588280E+00
 O  -1.226502744486E+00 -3.545136176661E+00  7.028666210770E+00
 H  -2.036809809254E+00 -4.045513432882E+00  6.772876651045E+00
 H  -1.188611080527E+00 -3.569322894699E+00  8.002165530300E+00
 H  -1.783688601074E+00 -2.025697982655E+00  6.421445373445E+00
 O   3.306024508456E+00 -1.110732412648E+01  5.938510097651E+00
 H  -3.075528597133E+00 -1.841477948726E+00  5.519104131359E+00
 H  -3.199351248071E+00 -5.687871636303E+00  5.974362307950E+00
 H  -4.440918089658E+00 -4.881075089453E+00  6.498237863896E+00
 O  -3.596888811828E+00 -4.784661132156E+00  5.980328477046E+00
 O   1.079722591064E+01  7.006953555947E+00  5.944877240797E+00
 O   9.779499507303E+00  7.386683152083E+00  4.910807475860E+00
 H   8.966968465646E+00  7.571275632699E+00  5.489217144441E+00
 H   1.164911184581E+01  7.175500959458E+00  5.435159455722E+00
  115
CERIA BULK                              
 O  -1.886466881879E+00  1.021542877381E+00  3.946287050650E+00
 O   1.312307825723E+01  5.449297575251E+00  9.295062247120E-01
 O   1.693009586089E+01  5.462452662448E+00  9.873760409433E-01
 O   1.767475290515E+00  1.009851336459E+00  4.083599663692E+00
 O   1.119821444174E+01  4.385930233172E+00  4.010122305637E+00
 O  -5.572141433736E+00  9.662139453191E-01  4.435648895399E+00
 O   1.311297101888E+01  3.285103565994E+00  2.517945042716E+00
 O   1.116781288483E+01  6.580479307159E+00  2.452393659749E+00
 CE  1.757335868914E+00 -9.852486707017E-01  3.163664557603E+00
 CE -1.310245157392E-02  2.179156969512E+00  3.298662822946E+00
 CE  3.775740192601E+00 -4.436106994137E+00  3.176548313168E+00
 CE  5.706070023568E+00 -1.084023131401E+00  3.116821188822E+00
 CE  3.747747036724E+00  2.197393013810E+00  3.357949796225E+00
 CE  7.500955111565E+00 -4.371096660184E+00  3.317712957606E+00
 CE -1.881819581190E+00 -1.073545580151E+00  3.284522202564E+00
 CE -3.702946201851E+00  2.200597840559E+00  3.339750116413E+00
 CE -8.496467949762E-03 -4.330217212934E+00  3.264964822396E+00
 O  -3.295456288156E-02 -2.756590871853E-02  2.413283880140E+00
 O  -1.910293828612E+00  3.251802783292E+00  2.461369625386E+00
 O   1.879930642883E+01  4.470153495181E+00  4.137927195225E+00
 O   3.783508661350E+00 -1.611760656691E-01  2.602438835602E+00
 O   1.510473057589E+01  4.463886664638E+00  4.023727827204E+00
 O   1.699473835284E+01  3.203067975726E+00  2.538843558640E+00
 O  -3.806307832077E+00  2.168311599041E-03  2.476331964482E+00
 O   1.689485281814E+01  7.612353323206E+00  4.122065419005E+00
 O   1.292875096719E+01  7.561137622928E+00  4.218744991487E+00
 O   1.863790395990E+00 -1.043789027821E+00  8.701307393597E-01
 O  -2.507652077534E-03  2.174083751328E+00  8.972022924934E-01
 O   3.738514423485E+00 -4.375245097717E+00  8.726423359862E-01
 O   5.644781806804E+00 -1.064487076470E+00  8.511126851751E-01
 O   3.760319485917E+00  2.131752227848E+00  9.410447191324E-01
 O   1.893128613822E+01  6.655060062906E+00  2.553492992820E+00
 O  -1.902552047387E+00 -1.064858137232E+00  8.825758698660E-01
 O  -3.734388697029E+00  2.155450031288E+00  8.824207731243E-01
 O   1.496900482920E+01  6.610169271171E+00  2.488420427850E+00
 CE -1.481665265793E-02  1.341184329044E-02  8.394999679930E-03
 CE -1.879173128934E+00  3.244822237466E+00  1.719786352477E-02
 CE  1.878500681405E+00 -3.250247338476E+00  2.716864583775E-02
 CE  3.751494010434E+00  1.825985579524E-02  1.834256786885E-02
 CE  1.881844987942E+00  3.259000122750E+00  7.370430755248E-02
 CE  5.631704076147E+00 -3.266745453545E+00  1.390390970689E-02
 CE -3.745293539811E+00  1.208042700495E-02  1.282068145748E-02
 CE -5.622264152427E+00  3.242627478279E+00  7.682961324150E-02
 CE -1.892878371604E+00 -3.249957629543E+00  6.082676898966E-02
 O  -1.873274724332E+00  1.090310488398E+00 -7.562597685533E-01
 O  -3.775259809470E+00  4.352524296218E+00 -7.203958463953E-01
 O  -4.764217186054E-03 -2.185779973594E+00 -7.158074605670E-01
 O   1.882709003642E+00  1.103127759198E+00 -7.339205348975E-01
 O   1.075040143721E-02  4.345133987804E+00 -7.285104302637E-01
 O   3.745164412351E+00 -2.170200411134E+00 -7.221206036633E-01
 O  -5.638811106368E+00  1.098682201265E+00 -7.331622656016E-01
 O  -7.492422132814E+00  4.344579669955E+00 -6.800686702286E-01
 O  -3.754881047118E+00 -2.185665751566E+00 -7.321636206943E-01
 O   0.000000000000E+00  0.000000000000E+00 -2.343480358560E+00
 O  -1.875349616382E+00  3.257335300667E+00 -2.343480358560E+00
 O   1.875349616387E+00 -3.257335300663E+00 -2.343480358560E+00
 O   3.754594598638E+00  2.298640373012E-03 -2.343480358560E+00
 O   1.879244982246E+00  3.259633941048E+00 -2.343480358560E+00
 O   5.629944215034E+00 -3.255036660289E+00 -2.343480358560E+00
 O  -3.754594598638E+00 -2.298640383022E-03 -2.343480358560E+00
 O  -5.629944215034E+00  3.255036660289E+00 -2.343480358560E+00
 O  -1.879244982251E+00 -3.259633941043E+00 -2.343480358560E+00
 CE -1.876648071675E+00  1.085012220095E+00 -3.124640478080E+00
 CE -3.751997688052E+00  4.342347520768E+00 -3.124640478080E+00
 CE -1.298455285581E-03 -2.172323080569E+00 -3.124640478080E+00
 CE  1.877946526962E+00  1.087310860474E+00 -3.124640478080E+00
 CE  2.596910576150E-03  4.344646161143E+00 -3.124640478080E+00
 CE  3.753296143349E+00 -2.170024440194E+00 -3.124640478080E+00
 CE -5.631242670352E+00  1.082713579703E+00 -3.124640478080E+00
 CE -7.506592286696E+00  4.340048880394E+00 -3.124640478080E+00
 CE -3.755893053927E+00 -2.174621720952E+00 -3.124640478080E+00
 O   1.876648071675E+00 -1.085012220095E+00 -3.905800597599E+00
 O   1.298455285581E-03  2.172323080569E+00 -3.905800597599E+00
 O   3.751997688052E+00 -4.342347520768E+00 -3.905800597599E+00
 O   5.631242670352E+00 -1.082713579703E+00 -3.905800597599E+00
 O   3.755893053931E+00  2.174621720953E+00 -3.905800597599E+00
 O   7.506592286696E+00 -4.340048880394E+00 -3.905800597599E+00
 O  -1.877946526962E+00 -1.087310860474E+00 -3.905800597599E+00
 O  -3.753296143352E+00  2.170024440193E+00 -3.905800597599E+00
 O  -2.596910577147E-03 -4.344646161144E+00 -3.905800597599E+00
 O   6.930091113774E+00  1.968737622263E+01  7.045113898612E+00
 H   2.244061031996E-01 -8.950902982682E+00  5.389331861712E+00
 H   7.726776423170E+00  1.912467215948E+01  6.860588547037E+00
 H   6.729063966813E+00  1.961225707054E+01  7.995084004593E+00
 O   2.685371863291E+00 -4.880603632928E+00  6.612894107697E+00
 H   2.249901302690E+00 -4.926192166923E+00  5.708564269521E+00
 H   2.104699810795E+00 -4.390991972140E+00  7.217872984993E+00
 O   5.279645565490E+00 -7.671848204120E+00  5.846833538595E+00
 H   5.357848285480E+00 -6.879453755134E+00  6.437364682665E+00
 H   4.341652463879E+00 -7.955440354463E+00  5.892975253075E+00
 O  -5.868626073130E+00 -5.422251975574E+00  7.390663145557E+00
 H  -6.733013969893E+00 -5.015711517767E+00  7.153733792710E+00
 H   5.428480425960E+00 -5.478789406280E+00  8.363629420292E+00
 H  -1.032906158757E+01  1.750117976471E+01  5.438153488448E+00
 O  -9.436029337172E+00  1.777487621629E+01  5.853922954614E+00
 H  -9.601223945646E+00  1.830845205355E+01  6.647859550664E+00
 H   2.351210558945E+00 -6.639173203225E+00  6.432420878663E+00
 O   2.305434522542E+00 -7.486514289368E+00  5.933327423534E+00
 H   1.944640724934E+00 -8.203200460349E+00  6.522560058834E+00
 H  -2.478471151740E+00 -7.703404924684E+00  6.941756159070E+00
 O  -2.704820162194E+00 -7.481481735327E+00  6.024112236370E+00
 H  -3.417881006411E+00 -8.092842992621E+00  5.702711588280E+00
 O  -1.226502744486E+00 -3.545136176661E+00  7.028666210770E+00
 H  -2.036809809254E+00 -4.045513432882E+00  6.772876651045E+00
 H  -1.188611080527E+00 -3.569322894699E+00  8.002165530300E+00
 H  -1.783688601074E+00 -2.025697982655E+00  6.421445373445E+00
 O   3.306024508456E+00 -1.110732412648E+01  5.938510097651E+00
 H  -3.075528597133E+00 -1.841477948726E+00  5.519104131359E+00
 H  -3.199351248071E+00 -5.687871636303E+00  5.974362307950E+00
 H  -4.440918089658E+00 -4.881075089453E+00  6.498237863896E+00
 O  -3.596888811828E+00 -4.784661132156E+00  5.980328477046E+00
 O   1.079722591064E+01  7.006953555947E+00  5.944877240798E+00
 O   9.779499507303E+00  7.386683152083E+00  4.910807475860E+00
 H   8.966968465645E+00  7.571275632699E+00  5.489217144441E+00
 H   1.164911184581E+01  7.175500959458E+00  5.435159455721E+00
  115
CERIA BULK                               E -1.7736685192897E+04 DE-2.8E-07(  7)
 O  -1.886993757401E+00  1.021893591397E+00  3.946342060509E+00
 O   1.312320872484E+01  5.449496489844E+00  9.293807462883E-01
 O   1.693015912451E+01  5.462645789368E+00  9.874550519615E-01
 O   1.767185248395E+00  1.009775305034E+00  4.083671894147E+00
 O   1.119805148022E+01  4.386058540376E+00  4.010097549994E+00
 O  -5.571929243476E+00  9.658420762836E-01  4.435692981627E+00
 O   1.311292516360E+01  3.285296022391E+00  2.517600287500E+00
 O   1.116789577610E+01  6.580643328292E+00  2.452255622462E+00
 CE  1.757214363411E+00 -9.852808657808E-01  3.163818751853E+00
 CE -1.302369918085E-02  2.179320289545E+00  3.298655941047E+00
 CE  3.775625834517E+00 -4.436014579716E+00  3.176771792158E+00
 CE  5.705932949707E+00 -1.084168291366E+00  3.117146386356E+00
 CE  3.747576817015E+00  2.197263373094E+00  3.358220063408E+00
 CE  7.500978436657E+00 -4.371136970332E+00  3.317774797229E+00
 CE -1.881975327365E+00 -1.073623683381E+00  3.284430522025E+00
 CE -3.702769803907E+00  2.200678289684E+00  3.339689292532E+00
 CE -8.560628636618E-03 -4.330130985151E+00  3.265094346871E+00
 O  -3.312877079059E-02 -2.770199248832E-02  2.413192290245E+00
 O  -1.910695651553E+00  3.251759133234E+00  2.461303334487E+00
 O   1.879970237910E+01  4.470346336321E+00  4.138407706486E+00
 O   3.783556833627E+00 -1.611828412659E-01  2.602707194071E+00
 O   1.510483001934E+01  4.464428627063E+00  4.023522500511E+00
 O   1.699538526981E+01  3.203253488252E+00  2.539030816811E+00
 O  -3.806396221590E+00  2.240886927152E-03  2.476342163359E+00
 O   1.689481531226E+01  7.612638657747E+00  4.122277446363E+00
 O   1.292888306601E+01  7.561098150984E+00  4.218814613553E+00
 O   1.863862054829E+00 -1.043771578599E+00  8.701801145204E-01
 O  -2.685717585649E-03  2.174203893211E+00  8.971276705425E-01
 O   3.738478702974E+00 -4.375230102018E+00  8.726467075985E-01
 O   5.644632564085E+00 -1.064464203856E+00  8.511541408495E-01
 O   3.760463902691E+00  2.131778479292E+00  9.413319954277E-01
 O   1.893128218736E+01  6.655186791045E+00  2.553484166769E+00
 O  -1.902688832211E+00 -1.064756615390E+00  8.824358689907E-01
 O  -3.734437881949E+00  2.155427780446E+00  8.823944655376E-01
 O   1.496913272059E+01  6.610699509136E+00  2.488191989369E+00
 CE -1.487600970718E-02  1.345462070738E-02  8.425431562306E-03
 CE -1.879068385851E+00  3.244879724717E+00  1.717289784397E-02
 CE  1.878542682635E+00 -3.250313340529E+00  2.723745780275E-02
 CE  3.751513992514E+00  1.834353437519E-02  1.841768892778E-02
 CE  1.881953826801E+00  3.259117472265E+00  7.384641353239E-02
 CE  5.631716583926E+00 -3.266675232998E+00  1.389874097737E-02
 CE -3.745343810703E+00  1.206540106861E-02  1.283159923315E-02
 CE -5.622228903295E+00  3.242598850499E+00  7.692196365684E-02
 CE -1.892854282714E+00 -3.249929306481E+00  6.070319873031E-02
 O  -1.873325193116E+00  1.090299830963E+00 -7.563289144215E-01
 O  -3.775280541529E+00  4.352568329989E+00 -7.204381454565E-01
 O  -4.758847001038E-03 -2.185782030299E+00 -7.157690184802E-01
 O   1.882719840166E+00  1.103243097120E+00 -7.338677890565E-01
 O   1.083027643796E-02  4.345215799977E+00 -7.285954508669E-01
 O   3.745118230569E+00 -2.170215739391E+00 -7.221641070134E-01
 O  -5.638891082151E+00  1.098680911009E+00 -7.331580622877E-01
 O  -7.492374190056E+00  4.344505032372E+00 -6.800164256418E-01
 O  -3.754958225524E+00 -2.185749075533E+00 -7.321875834505E-01
 O   0.000000000000E+00  0.000000000000E+00 -2.343480358560E+00
 O  -1.875320889693E+00  3.257335199551E+00 -2.343480358560E+00
 O   1.875320889698E+00 -3.257335199547E+00 -2.343480358560E+00
 O   3.754604303253E+00  2.337339608510E-03 -2.343480358560E+00
 O   1.879283413551E+00  3.259672539168E+00 -2.343480358560E+00
 O   5.629925192960E+00 -3.254997859938E+00 -2.343480358560E+00
 O  -3.754604303253E+00 -2.337339618520E-03 -2.343480358560E+00
 O  -5.629925192960E+00  3.254997859938E+00 -2.343480358560E+00
 O  -1.879283413556E+00 -3.259672539163E+00 -2.343480358560E+00
 CE -1.876641730984E+00  1.084999286645E+00 -3.124640478080E+00
 CE -3.751962620672E+00  4.342334486201E+00 -3.124640478080E+00
 CE -1.320841283417E-03 -2.172335912903E+00 -3.124640478080E+00
 CE  1.877962572268E+00  1.087336626259E+00 -3.124640478080E+00
 CE  2.641682571821E-03  4.344671825811E+00 -3.124640478080E+00
 CE  3.753283461967E+00 -2.169998573293E+00 -3.124640478080E+00
 CE -5.631246034276E+00  1.082661947017E+00 -3.124640478080E+00
 CE -7.506566923931E+00  4.339997146591E+00 -3.124640478080E+00
 CE -3.755925144540E+00 -2.174673252522E+00 -3.124640478080E+00
 O   1.876641730984E+00 -1.084999286645E+00 -3.905800597599E+00
 O   1.320841283417E-03  2.172335912903E+00 -3.905800597599E+00
 O   3.751962620672E+00 -4.342334486201E+00 -3.905800597599E+00
 O   5.631246034276E+00 -1.082661947017E+00 -3.905800597599E+00
 O   3.755925144544E+00  2.174673252523E+00 -3.905800597599E+00
 O   7.506566923931E+00 -4.339997146591E+00 -3.905800597599E+00
 O  -1.877962572268E+00 -1.087336626259E+00 -3.905800597599E+00
 O  -3.753283461970E+00  2.169998573292E+00 -3.905800597599E+00
 O  -2.641682572819E-03 -4.344671825812E+00 -3.905800597599E+00
 O   6.930027122786E+00  1.968729041337E+01  7.045332086396E+00
 H   2.247098751268E-01 -8.951258402931E+00  5.389354375968E+00
 H   7.726716046227E+00  1.912473169357E+01  6.860658114395E+00
 H   6.729161872697E+00  1.961205264056E+01  7.995325188572E+00
 O   2.685332287965E+00 -4.880749236354E+00  6.613296899822E+00
 H   2.250241487108E+00 -4.926485936080E+00  5.708769921830E+00
 H   2.104620823369E+00 -4.390771363773E+00  7.217909197877E+00
 O   5.279597733295E+00 -7.671966755385E+00  5.847078084152E+00
 H   5.357485338968E+00 -6.879581736172E+00  6.437665831990E+00
 H   4.341770376894E+00 -7.955934091263E+00  5.893273446306E+00
 O  -5.869282920012E+00 -5.422763669168E+00  7.390736608191E+00
 H  -6.734001598164E+00 -5.016762272414E+00  7.154167659164E+00
 H   5.428260561914E+00 -5.479044455050E+00  8.363674846568E+00
 H  -1.032926256322E+01  1.750089822049E+01  5.437991949727E+00
 O  -9.436173124925E+00  1.777426964247E+01  5.854020381517E+00
 H  -9.601430177651E+00  1.830836698101E+01  6.647540503520E+00
 H   2.350760945642E+00 -6.639216220836E+00  6.432968466341E+00
 O   2.305428800815E+00 -7.486618987490E+00  5.933917912924E+00
 H   1.944465344732E+00 -8.203304161423E+00  6.522994046031E+00
 H  -2.479170111704E+00 -7.704240939206E+00  6.941900944189E+00
 O  -2.705601244681E+00 -7.481582330229E+00  6.024439532885E+00
 H  -3.418547671236E+00 -8.092906459293E+00  5.702532451447E+00
 O  -1.227492124224E+00 -3.545018045501E+00  7.029394511518E+00
 H  -2.037498754453E+00 -4.045711289036E+00  6.773447762181E+00
 H  -1.189962227138E+00 -3.568981016628E+00  8.002877954561E+00
 H  -1.784030926375E+00 -2.025677027142E+00  6.421703572775E+00
 O   3.305957680056E+00 -1.110719833608E+01  5.938523209220E+00
 H  -3.075589280295E+00 -1.841206349029E+00  5.519106996783E+00
 H  -3.199765274466E+00 -5.688321903448E+00  5.974515003835E+00
 H  -4.441620932211E+00 -4.881592132259E+00  6.497940480530E+00
 O  -3.597450809695E+00 -4.785189793414E+00  5.980334754468E+00
 O   1.079712664626E+01  7.006641728803E+00  5.944883130351E+00
 O   9.779389758290E+00  7.386495847846E+00  4.910826809027E+00
 H   8.966765157645E+00  7.570775850839E+00  5.489292234116E+00
 H   1.164904677876E+01  7.175565990651E+00  5.435527595067E+00
  115
CERIA BULK                               E -1.7736685189291E+04 DE-5.3E-07(  7)
 O  -1.886993757401E+00  1.021893591397E+00  3.946342060509E+00
 O   1.312320872484E+01  5.449496489844E+00  9.293807462883E-01
 O   1.693015912451E+01  5.462645789368E+00  9.874550519615E-01
 O   1.767185248395E+00  1.009775305034E+00  4.083671894147E+00
 O   1.119805148022E+01  4.386058540376E+00  4.010097549994E+00
 O  -5.571929243476E+00  9.658420762836E-01  4.435692981627E+00
 O   1.311292516360E+01  3.285296022391E+00  2.517600287500E+00
 O   1.116789577610E+01  6.580643328292E+00  2.452255622462E+00
 CE  1.757214363411E+00 -9.852808657808E-01  3.163818751853E+00
 CE -1.302369918085E-02  2.179320289545E+00  3.298655941047E+00
 CE  3.775625834517E+00 -4.436014579716E+00  3.176771792158E+00
 CE  5.705932949707E+00 -1.084168291366E+00  3.117146386356E+00
 CE  3.747576817015E+00  2.197263373094E+00  3.358220063408E+00
 CE  7.500978436657E+00 -4.371136970332E+00  3.317774797229E+00
 CE -1.881975327365E+00 -1.073623683381E+00  3.284430522025E+00
 CE -3.702769803907E+00  2.200678289684E+00  3.339689292532E+00
 CE -8.560628636618E-03 -4.330130985151E+00  3.265094346871E+00
 O  -3.312877079059E-02 -2.770199248832E-02  2.413192290245E+00
 O  -1.910695651553E+00  3.251759133234E+00  2.461303334487E+00
 O   1.879970237910E+01  4.470346336321E+00  4.138407706486E+00
 O   3.783556833627E+00 -1.611828412659E-01  2.602707194071E+00
 O   1.510483001934E+01  4.464428627063E+00  4.023522500511E+00
 O   1.699538526981E+01  3.203253488252E+00  2.539030816811E+00
 O  -3.806396221590E+00  2.240886927152E-03  2.476342163359E+00
 O   1.689481531226E+01  7.612638657747E+00  4.122277446363E+00
 O   1.292888306601E+01  7.561098150984E+00  4.218814613553E+00
 O   1.863862054829E+00 -1.043771578599E+00  8.701801145204E-01
 O  -2.685717585649E-03  2.174203893211E+00  8.971276705425E-01
 O   3.738478702974E+00 -4.375230102018E+00  8.726467075985E-01
 O   5.644632564085E+00 -1.064464203856E+00  8.511541408495E-01
 O   3.760463902691E+00  2.131778479292E+00  9.413319954277E-01
 O   1.893128218736E+01  6.655186791045E+00  2.553484166769E+00
 O  -1.902688832211E+00 -1.064756615390E+00  8.824358689907E-01
 O  -3.734437881949E+00  2.155427780446E+00  8.823944655376E-01
 O   1.496913272059E+01  6.610699509136E+00  2.488191989369E+00
 CE -1.487600970718E-02  1.345462070738E-02  8.425431562306E-03
 CE -1.879068385851E+00  3.244879724717E+00  1.717289784397E-02
 CE  1.878542682635E+00 -3.250313340529E+00  2.723745780275E-02
 CE  3.751513992514E+00  1.834353437519E-02  1.841768892778E-02
 CE  1.881953826801E+00  3.259117472265E+00  7.384641353239E-02
 CE  5.631716583926E+00 -3.266675232998E+00  1.389874097737E-02
 CE -3.745343810703E+00  1.206540106861E-02  1.283159923315E-02
 CE -5.622228903295E+00  3.242598850499E+00  7.692196365684E-02
 CE -1.892854282714E+00 -3.249929306481E+00  6.070319873031E-02
 O  -1.873325193116E+00  1.090299830963E+00 -7.563289144215E-01
 O  -3.775280541529E+00  4.352568329989E+00 -7.204381454565E-01
 O  -4.758847001038E-03 -2.185782030299E+00 -7.157690184802E-01
 O   1.882719840166E+00  1.103243097120E+00 -7.338677890565E-01
 O   1.083027643796E-02  4.345215799977E+00 -7.285954508669E-01
 O   3.745118230569E+00 -2.170215739391E+00 -7.221641070134E-01
 O  -5.638891082151E+00  1.098680911009E+00 -7.331580622877E-01
 O  -7.492374190056E+00  4.344505032372E+00 -6.800164256418E-01
 O  -3.754958225524E+00 -2.185749075533E+00 -7.321875834505E-01
 O   0.000000000000E+00  0.000000000000E+00 -2.343480358560E+00
 O  -1.875320889693E+00  3.257335199551E+00 -2.343480358560E+00
 O   1.875320889698E+00 -3.257335199547E+00 -2.343480358560E+00
 O   3.754604303253E+00  2.337339608510E-03 -2.343480358560E+00
 O   1.879283413551E+00  3.259672539168E+00 -2.343480358560E+00
 O   5.629925192960E+00 -3.254997859938E+00 -2.343480358560E+00
 O  -3.754604303253E+00 -2.337339618520E-03 -2.343480358560E+00
 O  -5.629925192960E+00  3.254997859938E+00 -2.343480358560E+00
 O  -1.879283413556E+00 -3.259672539163E+00 -2.343480358560E+00
 CE -1.876641730984E+00  1.084999286645E+00 -3.124640478080E+00
 CE -3.751962620672E+00  4.342334486201E+00 -3.124640478080E+00
 CE -1.320841283417E-03 -2.172335912903E+00 -3.124640478080E+00
 CE  1.877962572268E+00  1.087336626259E+00 -3.124640478080E+00
 CE  2.641682571821E-03  4.344671825811E+00 -3.124640478080E+00
 CE  3.753283461967E+00 -2.169998573293E+00 -3.124640478080E+00
 CE -5.631246034276E+00  1.082661947017E+00 -3.124640478080E+00
 CE -7.506566923931E+00  4.339997146591E+00 -3.124640478080E+00
 CE -3.755925144540E+00 -2.174673252522E+00 -3.124640478080E+00
 O   1.876641730984E+00 -1.084999286645E+00 -3.905800597599E+00
 O   1.320841283417E-03  2.172335912903E+00 -3.905800597599E+00
 O   3.751962620672E+00 -4.342334486201E+00 -3.905800597599E+00
 O   5.631246034276E+00 -1.082661947017E+00 -3.905800597599E+00
 O   3.755925144544E+00  2.174673252523E+00 -3.905800597599E+00
 O   7.506566923931E+00 -4.339997146591E+00 -3.905800597599E+00
 O  -1.877962572268E+00 -1.087336626259E+00 -3.905800597599E+00
 O  -3.753283461970E+00  2.169998573292E+00 -3.905800597599E+00
 O  -2.641682572819E-03 -4.344671825812E+00 -3.905800597599E+00
 O   6.930027122786E+00  1.968729041337E+01  7.045332086396E+00
 H   2.247098751268E-01 -8.951258402931E+00  5.389354375968E+00
 H   7.726716046227E+00  1.912473169357E+01  6.860658114395E+00
 H   6.729161872697E+00  1.961205264056E+01  7.995325188572E+00
 O   2.685332287965E+00 -4.880749236354E+00  6.613296899822E+00
 H   2.250241487108E+00 -4.926485936080E+00  5.708769921830E+00
 H   2.104620823369E+00 -4.390771363773E+00  7.217909197877E+00
 O   5.279597733295E+00 -7.671966755385E+00  5.847078084152E+00
 H   5.357485338968E+00 -6.879581736172E+00  6.437665831990E+00
 H   4.341770376894E+00 -7.955934091263E+00  5.893273446306E+00
 O  -5.869282920012E+00 -5.422763669168E+00  7.390736608191E+00
 H  -6.734001598164E+00 -5.016762272414E+00  7.154167659164E+00
 H   5.428260561914E+00 -5.479044455050E+00  8.363674846568E+00
 H  -1.032926256322E+01  1.750089822049E+01  5.437991949727E+00
 O  -9.436173124925E+00  1.777426964247E+01  5.854020381517E+00
 H  -9.601430177651E+00  1.830836698101E+01  6.647540503520E+00
 H   2.350760945642E+00 -6.639216220836E+00  6.432968466341E+00
 O   2.305428800815E+00 -7.486618987490E+00  5.933917912924E+00
 H   1.944465344732E+00 -8.203304161423E+00  6.522994046031E+00
 H  -2.479170111704E+00 -7.704240939206E+00  6.941900944189E+00
 O  -2.705601244681E+00 -7.481582330229E+00  6.024439532885E+00
 H  -3.418547671236E+00 -8.092906459293E+00  5.702532451447E+00
 O  -1.227492124224E+00 -3.545018045501E+00  7.029394511518E+00
 H  -2.037498754453E+00 -4.045711289036E+00  6.773447762181E+00
 H  -1.189962227138E+00 -3.568981016628E+00  8.002877954561E+00
 H  -1.784030926375E+00 -2.025677027142E+00  6.421703572775E+00
 O   3.305957680056E+00 -1.110719833608E+01  5.938523209220E+00
 H  -3.075589280295E+00 -1.841206349029E+00  5.519106996783E+00
 H  -3.199765274466E+00 -5.688321903448E+00  5.974515003835E+00
 H  -4.441620932211E+00 -4.881592132259E+00  6.497940480530E+00
 O  -3.597450809695E+00 -4.785189793414E+00  5.980334754468E+00
 O   1.079712664626E+01  7.006641728803E+00  5.944883130351E+00
 O   9.779389758290E+00  7.386495847846E+00  4.910826809027E+00
 H   8.966765157645E+00  7.570775850839E+00  5.489292234116E+00
 H   1.164904677876E+01  7.175565990651E+00  5.435527595067E+00
