  113
CERIA BULK                              
 O  -1.913797127972E+00  1.030723348962E+00  3.937053045433E+00
 O   1.320009487403E+01  5.466409953461E+00  8.466385675060E-01
 O   1.700515305198E+01  5.451563491969E+00  8.692192240210E-01
 O   1.810354939146E+00  1.099903954398E+00  3.997631191997E+00
 O   1.119355806600E+01  4.320587102123E+00  4.075844903324E+00
 O  -5.677416788733E+00  1.005382239767E+00  4.320290735541E+00
 O   1.317804970875E+01  3.350304271602E+00  2.464087525470E+00
 O   1.127751506152E+01  6.521759541353E+00  2.398953046797E+00
 CE  1.823429218213E+00 -1.023351379580E+00  3.264118798785E+00
 CE -1.475371546600E-02  2.173732091042E+00  3.230113487166E+00
 CE  3.767834125909E+00 -4.383678663014E+00  3.176751208101E+00
 CE  5.651670097307E+00 -1.156477819401E+00  3.204619408694E+00
 CE  3.763004901415E+00  2.234944508415E+00  3.284285385838E+00
 CE  7.536828706124E+00 -4.350460059564E+00  3.306469535274E+00
 CE -1.900636395859E+00 -1.106094253146E+00  3.194049526878E+00
 CE -3.725171712519E+00  2.177321097270E+00  3.275946787061E+00
 CE  9.118383760000E-03 -4.325058385301E+00  3.167029824719E+00
 O  -5.036278001000E-03 -1.955781482500E-02  2.405926693750E+00
 O  -1.917795803311E+00  3.250586668366E+00  2.403332470680E+00
 O   1.891718068707E+01  4.444050474129E+00  4.074905787526E+00
 O   3.786469527337E+00 -6.288806018200E-02  2.466836856213E+00
 O   1.522418558107E+01  4.508093784231E+00  4.086479415151E+00
 O   1.706991414722E+01  3.234329921935E+00  2.455886044720E+00
 O  -3.860081433544E+00  2.344144758600E-02  2.439951847731E+00
 O   1.695722554650E+01  7.595170353747E+00  3.985839844433E+00
 O   1.321855236857E+01  7.614551894755E+00  3.998759494694E+00
 O   1.874810312882E+00 -1.058753723707E+00  8.538636125110E-01
 O   5.128537835000E-03  2.176547863071E+00  8.688077791280E-01
 O   3.756860128126E+00 -4.370341515600E+00  8.390685059000E-01
 O   5.660109019160E+00 -1.100942946475E+00  8.361261919220E-01
 O   3.771044275467E+00  2.185980381611E+00  8.726398794700E-01
 O   1.893124827202E+01  6.611660349787E+00  2.410222271026E+00
 O  -1.913172874910E+00 -1.068494655025E+00  8.602847050120E-01
 O  -3.752998053203E+00  2.158968357762E+00  8.405246126400E-01
 O   1.508819513357E+01  6.554014628630E+00  2.367098976465E+00
 CE  1.924090619000E-03  5.907551629000E-03  2.904066072400E-02
 CE -1.888434796071E+00  3.251005662533E+00  1.985779792500E-02
 CE  1.886734818088E+00 -3.249050948624E+00  3.243533789400E-02
 CE  3.765269608468E+00  1.074894176100E-02  6.266441426000E-02
 CE  1.893888916744E+00  3.276083031534E+00  5.719891190300E-02
 CE  5.657397783068E+00 -3.266504829473E+00  2.445346162300E-02
 CE -3.784068727290E+00 -8.916453570000E-04  3.998036869500E-02
 CE -5.649512573131E+00  3.243318099635E+00  4.959423658200E-02
 CE -1.907428640863E+00 -3.268460135874E+00  3.809113994900E-02
 O  -1.880540923441E+00  1.083565926055E+00 -7.847383449620E-01
 O  -3.775182187318E+00  4.346405358505E+00 -7.780210137960E-01
 O  -8.629416956000E-03 -2.176452655678E+00 -7.651915717710E-01
 O   1.885843096441E+00  1.098713668956E+00 -7.711766411170E-01
 O   3.764086596000E-03  4.344436410470E+00 -7.793283062620E-01
 O   3.759991670746E+00 -2.171598234458E+00 -7.696403998000E-01
 O  -5.666043720207E+00  1.082341569644E+00 -7.653595332080E-01
 O  -7.535288785347E+00  4.342973537201E+00 -7.624530377180E-01
 O  -3.775485985095E+00 -2.180825069852E+00 -7.823914241410E-01
 O   0.000000000000E+00  0.000000000000E+00 -2.343480358560E+00
 O  -1.882408747789E+00  3.261739681564E+00 -2.343480358560E+00
 O   1.882408747794E+00 -3.261739681559E+00 -2.343480358560E+00
 O   3.773205573101E+00  4.911414509000E-03 -2.343480358560E+00
 O   1.890796825305E+00  3.266651096081E+00 -2.343480358560E+00
 O   5.655614320903E+00 -3.256828267051E+00 -2.343480358560E+00
 O  -3.773205573101E+00 -4.911414519000E-03 -2.343480358560E+00
 O  -5.655614320903E+00  3.256828267051E+00 -2.343480358560E+00
 O  -1.890796825310E+00 -3.266651096076E+00 -2.343480358560E+00
 CE -1.885204773631E+00  1.085609422349E+00 -3.124640478080E+00
 CE -3.767613521415E+00  4.347349103918E+00 -3.124640478080E+00
 CE -2.796025837000E-03 -2.176130259212E+00 -3.124640478080E+00
 CE  1.888000799469E+00  1.090520836864E+00 -3.124640478080E+00
 CE  5.592051678000E-03  4.352260518429E+00 -3.124640478080E+00
 CE  3.770409547263E+00 -2.171218844700E+00 -3.124640478080E+00
 CE -5.658410346773E+00  1.080698007821E+00 -3.124640478080E+00
 CE -7.540819094522E+00  4.342437689408E+00 -3.124640478080E+00
 CE -3.776001598941E+00 -2.181041673730E+00 -3.124640478080E+00
 O   1.885204773631E+00 -1.085609422349E+00 -3.905800597599E+00
 O   2.796025837000E-03  2.176130259212E+00 -3.905800597599E+00
 O   3.767613521415E+00 -4.347349103918E+00 -3.905800597599E+00
 O   5.658410346773E+00 -1.080698007821E+00 -3.905800597599E+00
 O   3.776001598945E+00  2.181041673731E+00 -3.905800597599E+00
 O   7.540819094522E+00 -4.342437689408E+00 -3.905800597599E+00
 O  -1.888000799469E+00 -1.090520836864E+00 -3.905800597599E+00
 O  -3.770409547266E+00  2.171218844699E+00 -3.905800597599E+00
 O  -5.592051679000E-03 -4.352260518430E+00 -3.905800597599E+00
 O   6.509369399498E+00  1.920390837228E+01  6.663455373282E+00
 H   1.827923204590E-01 -8.976623397705E+00  5.254806336001E+00
 H   7.381050183349E+00  1.875074057221E+01  6.644908943971E+00
 H   5.839054147875E+00  1.852376417071E+01  6.438915588613E+00
 O   1.957108215494E+00 -5.105171645889E+00  6.665431384059E+00
 H   1.938658398823E+00 -5.106155608674E+00  5.656676956266E+00
 H   1.096284850441E+00 -4.716090009102E+00  6.917887355135E+00
 O   5.308300467844E+00 -8.105902198365E+00  5.921457692379E+00
 H   5.173839443904E+00 -7.264618361256E+00  6.428772200835E+00
 H   4.408745163731E+00 -8.406882266948E+00  5.653184796923E+00
 O  -6.353665055447E+00 -5.518831330807E+00  6.650861220263E+00
 H  -6.240295531610E+00 -5.448092843188E+00  5.653529733493E+00
 H   4.078990614169E+00 -5.161471035454E+00  6.879189029519E+00
 H  -1.077870406609E+01  1.805227344351E+01  5.704981838380E+00
 O  -1.009774815967E+01  1.873375224138E+01  5.888408103477E+00
 H  -1.058838091090E+01  1.957488217050E+01  6.021458343795E+00
 H   1.947651249305E+00 -6.788886857777E+00  6.418207698147E+00
 O   2.077591678618E+00 -7.650307073952E+00  5.934436192209E+00
 H   1.703320827046E+00 -8.380344888426E+00  6.458399040354E+00
 H  -2.481430937005E+00 -7.967460913908E+00  6.768226268757E+00
 O  -2.797119419428E+00 -7.487798057792E+00  5.988361284241E+00
 H  -3.417525256620E+00 -8.099083644786E+00  5.484963538747E+00
 O  -9.309537566550E-01 -4.220068992178E+00  6.463167727082E+00
 H  -1.329092628107E+00 -4.685808486427E+00  5.669908842820E+00
 H  -1.586217029651E+00 -4.383558773733E+00  7.160943702262E+00
 H  -1.726634992333E+00 -2.371998958372E+00  6.255420797285E+00
 O   3.348959382125E+00 -1.140569962566E+01  5.983041214715E+00
 H  -3.010184642866E+00 -2.041990935396E+00  5.413718628927E+00
 H  -3.417063019924E+00 -5.711849165989E+00  6.050781530197E+00
 H  -4.631535677302E+00 -4.794660656246E+00  6.410543353778E+00
 O  -3.742537156901E+00 -4.783182288748E+00  5.990184720620E+00
 O   4.913383521333E+00  1.728515293101E+01  5.063171561066E+00
 O   3.675449350847E+00  1.735531954262E+01  4.250049995965E+00
  113
CERIA BULK                              
 O  -1.913797127972E+00  1.030723348962E+00  3.937053045433E+00
 O   1.320009487403E+01  5.466409953461E+00  8.466385675063E-01
 O   1.700515305198E+01  5.451563491969E+00  8.692192240213E-01
 O   1.810354939146E+00  1.099903954398E+00  3.997631191997E+00
 O   1.119355806600E+01  4.320587102123E+00  4.075844903324E+00
 O  -5.677416788734E+00  1.005382239767E+00  4.320290735541E+00
 O   1.317804970875E+01  3.350304271602E+00  2.464087525470E+00
 O   1.127751506152E+01  6.521759541352E+00  2.398953046797E+00
 CE  1.823429218213E+00 -1.023351379580E+00  3.264118798785E+00
 CE -1.475371546614E-02  2.173732091042E+00  3.230113487166E+00
 CE  3.767834125909E+00 -4.383678663014E+00  3.176751208100E+00
 CE  5.651670097307E+00 -1.156477819401E+00  3.204619408695E+00
 CE  3.763004901415E+00  2.234944508415E+00  3.284285385838E+00
 CE  7.536828706124E+00 -4.350460059564E+00  3.306469535274E+00
 CE -1.900636395859E+00 -1.106094253146E+00  3.194049526878E+00
 CE -3.725171712519E+00  2.177321097270E+00  3.275946787061E+00
 CE  9.118383760305E-03 -4.325058385301E+00  3.167029824719E+00
 O  -5.036278001424E-03 -1.955781482493E-02  2.405926693750E+00
 O  -1.917795803311E+00  3.250586668366E+00  2.403332470680E+00
 O   1.891718068707E+01  4.444050474129E+00  4.074905787526E+00
 O   3.786469527337E+00 -6.288806018241E-02  2.466836856213E+00
 O   1.522418558107E+01  4.508093784231E+00  4.086479415151E+00
 O   1.706991414722E+01  3.234329921935E+00  2.455886044720E+00
 O  -3.860081433544E+00  2.344144758624E-02  2.439951847731E+00
 O   1.695722554650E+01  7.595170353747E+00  3.985839844433E+00
 O   1.321855236857E+01  7.614551894755E+00  3.998759494694E+00
 O   1.874810312882E+00 -1.058753723707E+00  8.538636125110E-01
 O   5.128537834505E-03  2.176547863071E+00  8.688077791281E-01
 O   3.756860128126E+00 -4.370341515600E+00  8.390685058996E-01
 O   5.660109019159E+00 -1.100942946475E+00  8.361261919223E-01
 O   3.771044275467E+00  2.185980381611E+00  8.726398794701E-01
 O   1.893124827202E+01  6.611660349787E+00  2.410222271026E+00
 O  -1.913172874910E+00 -1.068494655025E+00  8.602847050117E-01
 O  -3.752998053203E+00  2.158968357762E+00  8.405246126400E-01
 O   1.508819513356E+01  6.554014628630E+00  2.367098976465E+00
 CE  1.924090618945E-03  5.907551629350E-03  2.904066072371E-02
 CE -1.888434796071E+00  3.251005662533E+00  1.985779792452E-02
 CE  1.886734818088E+00 -3.249050948624E+00  3.243533789424E-02
 CE  3.765269608468E+00  1.074894176059E-02  6.266441425993E-02
 CE  1.893888916744E+00  3.276083031534E+00  5.719891190322E-02
 CE  5.657397783069E+00 -3.266504829473E+00  2.445346162312E-02
 CE -3.784068727290E+00 -8.916453570474E-04  3.998036869465E-02
 CE -5.649512573131E+00  3.243318099635E+00  4.959423658206E-02
 CE -1.907428640863E+00 -3.268460135874E+00  3.809113994858E-02
 O  -1.880540923441E+00  1.083565926055E+00 -7.847383449616E-01
 O  -3.775182187318E+00  4.346405358505E+00 -7.780210137961E-01
 O  -8.629416956006E-03 -2.176452655678E+00 -7.651915717708E-01
 O   1.885843096441E+00  1.098713668956E+00 -7.711766411173E-01
 O   3.764086596211E-03  4.344436410470E+00 -7.793283062623E-01
 O   3.759991670746E+00 -2.171598234458E+00 -7.696403997999E-01
 O  -5.666043720207E+00  1.082341569644E+00 -7.653595332077E-01
 O  -7.535288785347E+00  4.342973537201E+00 -7.624530377178E-01
 O  -3.775485985095E+00 -2.180825069852E+00 -7.823914241406E-01
 O   0.000000000000E+00  0.000000000000E+00 -2.343480358560E+00
 O  -1.882408747789E+00  3.261739681564E+00 -2.343480358560E+00
 O   1.882408747794E+00 -3.261739681559E+00 -2.343480358560E+00
 O   3.773205573101E+00  4.911414509446E-03 -2.343480358560E+00
 O   1.890796825305E+00  3.266651096081E+00 -2.343480358560E+00
 O   5.655614320904E+00 -3.256828267051E+00 -2.343480358560E+00
 O  -3.773205573101E+00 -4.911414519447E-03 -2.343480358560E+00
 O  -5.655614320904E+00  3.256828267051E+00 -2.343480358560E+00
 O  -1.890796825310E+00 -3.266651096076E+00 -2.343480358560E+00
 CE -1.885204773631E+00  1.085609422349E+00 -3.124640478080E+00
 CE -3.767613521415E+00  4.347349103918E+00 -3.124640478080E+00
 CE -2.796025836921E-03 -2.176130259212E+00 -3.124640478080E+00
 CE  1.888000799469E+00  1.090520836864E+00 -3.124640478080E+00
 CE  5.592051677846E-03  4.352260518429E+00 -3.124640478080E+00
 CE  3.770409547263E+00 -2.171218844700E+00 -3.124640478080E+00
 CE -5.658410346773E+00  1.080698007821E+00 -3.124640478080E+00
 CE -7.540819094522E+00  4.342437689408E+00 -3.124640478080E+00
 CE -3.776001598941E+00 -2.181041673730E+00 -3.124640478080E+00
 O   1.885204773631E+00 -1.085609422349E+00 -3.905800597599E+00
 O   2.796025836921E-03  2.176130259212E+00 -3.905800597599E+00
 O   3.767613521415E+00 -4.347349103918E+00 -3.905800597599E+00
 O   5.658410346773E+00 -1.080698007821E+00 -3.905800597599E+00
 O   3.776001598945E+00  2.181041673731E+00 -3.905800597599E+00
 O   7.540819094522E+00 -4.342437689408E+00 -3.905800597599E+00
 O  -1.888000799469E+00 -1.090520836864E+00 -3.905800597599E+00
 O  -3.770409547266E+00  2.171218844699E+00 -3.905800597599E+00
 O  -5.592051678846E-03 -4.352260518430E+00 -3.905800597599E+00
 O   6.509369399498E+00  1.920390837228E+01  6.663455373281E+00
 H   1.827923204595E-01 -8.976623397704E+00  5.254806336001E+00
 H   7.381050183349E+00  1.875074057221E+01  6.644908943971E+00
 H   5.839054147875E+00  1.852376417071E+01  6.438915588613E+00
 O   1.957108215494E+00 -5.105171645889E+00  6.665431384059E+00
 H   1.938658398823E+00 -5.106155608674E+00  5.656676956267E+00
 H   1.096284850441E+00 -4.716090009102E+00  6.917887355135E+00
 O   5.308300467844E+00 -8.105902198365E+00  5.921457692379E+00
 H   5.173839443904E+00 -7.264618361256E+00  6.428772200835E+00
 H   4.408745163731E+00 -8.406882266948E+00  5.653184796923E+00
 O  -6.353665055447E+00 -5.518831330807E+00  6.650861220263E+00
 H  -6.240295531610E+00 -5.448092843188E+00  5.653529733493E+00
 H   4.078990614169E+00 -5.161471035454E+00  6.879189029519E+00
 H  -1.077870406609E+01  1.805227344351E+01  5.704981838380E+00
 O  -1.009774815966E+01  1.873375224138E+01  5.888408103477E+00
 H  -1.058838091090E+01  1.957488217050E+01  6.021458343795E+00
 H   1.947651249305E+00 -6.788886857777E+00  6.418207698147E+00
 O   2.077591678618E+00 -7.650307073952E+00  5.934436192209E+00
 H   1.703320827045E+00 -8.380344888426E+00  6.458399040354E+00
 H  -2.481430937005E+00 -7.967460913908E+00  6.768226268757E+00
 O  -2.797119419428E+00 -7.487798057792E+00  5.988361284241E+00
 H  -3.417525256620E+00 -8.099083644786E+00  5.484963538747E+00
 O  -9.309537566549E-01 -4.220068992178E+00  6.463167727082E+00
 H  -1.329092628107E+00 -4.685808486427E+00  5.669908842820E+00
 H  -1.586217029651E+00 -4.383558773733E+00  7.160943702262E+00
 H  -1.726634992333E+00 -2.371998958372E+00  6.255420797285E+00
 O   3.348959382125E+00 -1.140569962566E+01  5.983041214715E+00
 H  -3.010184642866E+00 -2.041990935396E+00  5.413718628927E+00
 H  -3.417063019924E+00 -5.711849165989E+00  6.050781530197E+00
 H  -4.631535677302E+00 -4.794660656246E+00  6.410543353778E+00
 O  -3.742537156901E+00 -4.783182288748E+00  5.990184720620E+00
 O   4.913383521333E+00  1.728515293101E+01  5.063171561066E+00
 O   3.675449350847E+00  1.735531954262E+01  4.250049995965E+00
  113
CERIA BULK                               E -1.7735467068696E+04 DE-9.4E-07( 43)
 O  -1.913862231416E+00  1.030689851148E+00  3.937127568539E+00
 O   1.320005768424E+01  5.466309185955E+00  8.465009854262E-01
 O   1.700519318404E+01  5.451579703577E+00  8.691781308402E-01
 O   1.810303494732E+00  1.099902894359E+00  3.997668800785E+00
 O   1.119343589290E+01  4.320592787748E+00  4.075856677440E+00
 O  -5.677313167694E+00  1.005295013736E+00  4.320221489361E+00
 O   1.317798744403E+01  3.350231098706E+00  2.464055585800E+00
 O   1.127752621626E+01  6.521769830939E+00  2.398991643294E+00
 CE  1.823401042708E+00 -1.023369042279E+00  3.264077322905E+00
 CE -1.480986041925E-02  2.173732376795E+00  3.230136241647E+00
 CE  3.767808240228E+00 -4.383704491267E+00  3.176788335997E+00
 CE  5.651602116410E+00 -1.156414002804E+00  3.204633578716E+00
 CE  3.762917170296E+00  2.234914288800E+00  3.284226156089E+00
 CE  7.536833055471E+00 -4.350481004066E+00  3.306470331940E+00
 CE -1.900695697276E+00 -1.106087591909E+00  3.193997527282E+00
 CE -3.725219989038E+00  2.177318310129E+00  3.275959132654E+00
 CE  9.134736531509E-03 -4.325005087035E+00  3.167028970867E+00
 O  -5.067303197840E-03 -1.955448636055E-02  2.405828685857E+00
 O  -1.917818031177E+00  3.250563525474E+00  2.403353746345E+00
 O   1.891720640541E+01  4.444089508586E+00  4.074841629542E+00
 O   3.786538611613E+00 -6.294948116800E-02  2.466728325350E+00
 O   1.522415330222E+01  4.508170697387E+00  4.086452169205E+00
 O   1.706991579493E+01  3.234346686004E+00  2.455830877215E+00
 O  -3.860100019527E+00  2.342023767261E-02  2.439820920148E+00
 O   1.695717373702E+01  7.595145433590E+00  3.985854515354E+00
 O   1.321858651982E+01  7.614633628128E+00  3.998819121070E+00
 O   1.874828935486E+00 -1.058752675860E+00  8.538143784675E-01
 O   5.138250552697E-03  2.176534507845E+00  8.688757254360E-01
 O   3.756901770685E+00 -4.370322733217E+00  8.390734583389E-01
 O   5.660046845804E+00 -1.100967493025E+00  8.361169381190E-01
 O   3.770969030894E+00  2.185952149638E+00  8.726140985855E-01
 O   1.893122546962E+01  6.611596275601E+00  2.410086262102E+00
 O  -1.913177762877E+00 -1.068490970060E+00  8.602758513174E-01
 O  -3.753015730406E+00  2.159006632751E+00  8.405339395378E-01
 O   1.508817254841E+01  6.554022205145E+00  2.367049641807E+00
 CE  1.861587474414E-03  5.918669164469E-03  2.900404007990E-02
 CE -1.888464248344E+00  3.251065285488E+00  1.987371519306E-02
 CE  1.886784398474E+00 -3.249042012905E+00  3.240401124264E-02
 CE  3.765292871630E+00  1.073592188963E-02  6.264930732118E-02
 CE  1.893889908349E+00  3.276078760000E+00  5.718229140873E-02
 CE  5.657403804729E+00 -3.266537833865E+00  2.438290304663E-02
 CE -3.784044060848E+00 -8.964689775384E-04  3.994610442036E-02
 CE -5.649534424453E+00  3.243325240563E+00  4.961276294401E-02
 CE -1.907410950506E+00 -3.268491505822E+00  3.808683419624E-02
 O  -1.880553363813E+00  1.083594932738E+00 -7.847043679228E-01
 O  -3.775192487849E+00  4.346377065355E+00 -7.780366622215E-01
 O  -8.642710702460E-03 -2.176423373395E+00 -7.652491861206E-01
 O   1.885855272019E+00  1.098672604183E+00 -7.711720932734E-01
 O   3.796667587196E-03  4.344358235060E+00 -7.793414940758E-01
 O   3.759980044836E+00 -2.171529316131E+00 -7.696341796858E-01
 O  -5.666087507239E+00  1.082310787225E+00 -7.653612575551E-01
 O  -7.535237529417E+00  4.342978091783E+00 -7.624676948672E-01
 O  -3.775456421799E+00 -2.180802704028E+00 -7.823811958166E-01
 O   0.000000000000E+00  0.000000000000E+00 -2.343480358560E+00
 O  -1.882406888562E+00  3.261739648261E+00 -2.343480358560E+00
 O   1.882406888567E+00 -3.261739648256E+00 -2.343480358560E+00
 O   3.773205140975E+00  4.913315839428E-03 -2.343480358560E+00
 O   1.890798252405E+00  3.266652964107E+00 -2.343480358560E+00
 O   5.655612029551E+00 -3.256826332417E+00 -2.343480358560E+00
 O  -3.773205140975E+00 -4.913315849428E-03 -2.343480358560E+00
 O  -5.655612029551E+00  3.256826332417E+00 -2.343480358560E+00
 O  -1.890798252410E+00 -3.266652964102E+00 -2.343480358560E+00
 CE -1.885204009847E+00  1.085608777471E+00 -3.124640478080E+00
 CE -3.767610898404E+00  4.347348425737E+00 -3.124640478080E+00
 CE -2.797121279429E-03 -2.176130870786E+00 -3.124640478080E+00
 CE  1.888001131127E+00  1.090522093316E+00 -3.124640478080E+00
 CE  5.594242562861E-03  4.352261741578E+00 -3.124640478080E+00
 CE  3.770408019694E+00 -2.171217554945E+00 -3.124640478080E+00
 CE -5.658409150863E+00  1.080695461613E+00 -3.124640478080E+00
 CE -7.540816039385E+00  4.342435109897E+00 -3.124640478080E+00
 CE -3.776002262258E+00 -2.181044186635E+00 -3.124640478080E+00
 O   1.885204009847E+00 -1.085608777471E+00 -3.905800597599E+00
 O   2.797121279429E-03  2.176130870786E+00 -3.905800597599E+00
 O   3.767610898404E+00 -4.347348425737E+00 -3.905800597599E+00
 O   5.658409150863E+00 -1.080695461613E+00 -3.905800597599E+00
 O   3.776002262262E+00  2.181044186636E+00 -3.905800597599E+00
 O   7.540816039385E+00 -4.342435109897E+00 -3.905800597599E+00
 O  -1.888001131127E+00 -1.090522093316E+00 -3.905800597599E+00
 O  -3.770408019697E+00  2.171217554944E+00 -3.905800597599E+00
 O  -5.594242563862E-03 -4.352261741579E+00 -3.905800597599E+00
 O   6.509284364305E+00  1.920387313732E+01  6.663258469661E+00
 H   1.828368894829E-01 -8.976937043920E+00  5.254721704549E+00
 H   7.380901117817E+00  1.875068405642E+01  6.645065162224E+00
 H   5.839000611206E+00  1.852365046622E+01  6.438721963083E+00
 O   1.957160541393E+00 -5.105171389556E+00  6.665421898362E+00
 H   1.938614026537E+00 -5.106157516483E+00  5.656679453122E+00
 H   1.096338791040E+00 -4.716054949199E+00  6.917979232944E+00
 O   5.308356381079E+00 -8.105851334060E+00  5.921435972629E+00
 H   5.173801417332E+00 -7.264499359518E+00  6.428663925906E+00
 H   4.408779164138E+00 -8.406879337777E+00  5.653248176748E+00
 O  -6.353660019868E+00 -5.518897845727E+00  6.650853436473E+00
 H  -6.240267959167E+00 -5.448113208162E+00  5.653523899857E+00
 H   4.079006555563E+00 -5.161547094165E+00  6.879232543007E+00
 H  -1.077875986238E+01  1.805237690759E+01  5.704799576905E+00
 O  -1.009779103548E+01  1.873370228396E+01  5.888478912540E+00
 H  -1.058829455547E+01  1.957488376524E+01  6.021436620799E+00
 H   1.947713170279E+00 -6.788889000833E+00  6.418200022021E+00
 O   2.077551167995E+00 -7.650321179515E+00  5.934439076383E+00
 H   1.703261766578E+00 -8.380352029624E+00  6.458455394121E+00
 H  -2.481361514207E+00 -7.967524310848E+00  6.768037567335E+00
 O  -2.796999892171E+00 -7.487718200344E+00  5.988253414611E+00
 H  -3.417549101504E+00 -8.098851798009E+00  5.484842275094E+00
 O  -9.309889955484E-01 -4.220138497124E+00  6.463215803451E+00
 H  -1.329103705371E+00 -4.685730948295E+00  5.669906974560E+00
 H  -1.586195061007E+00 -4.383626607342E+00  7.160976965637E+00
 H  -1.726605018838E+00 -2.371936428335E+00  6.255383577302E+00
 O   3.348982895279E+00 -1.140571572080E+01  5.983083350617E+00
 H  -3.010051881317E+00 -2.041919885121E+00  5.413702775395E+00
 H  -3.417046747450E+00 -5.711816574729E+00  6.050791038494E+00
 H  -4.631504245552E+00 -4.794608432888E+00  6.410603166468E+00
 O  -3.742605925474E+00 -4.783197997839E+00  5.990118748700E+00
 O   4.913571478067E+00  1.728524501827E+01  5.063274947726E+00
 O   3.675606731665E+00  1.735526836483E+01  4.250133664862E+00
  113
CERIA BULK                               E -1.7735467071933E+04 DE 7.7E-08(  9)
 O  -1.913862231416E+00  1.030689851148E+00  3.937127568539E+00
 O   1.320005768424E+01  5.466309185955E+00  8.465009854262E-01
 O   1.700519318404E+01  5.451579703577E+00  8.691781308402E-01
 O   1.810303494732E+00  1.099902894359E+00  3.997668800785E+00
 O   1.119343589290E+01  4.320592787748E+00  4.075856677440E+00
 O  -5.677313167694E+00  1.005295013736E+00  4.320221489361E+00
 O   1.317798744403E+01  3.350231098706E+00  2.464055585800E+00
 O   1.127752621626E+01  6.521769830939E+00  2.398991643294E+00
 CE  1.823401042708E+00 -1.023369042279E+00  3.264077322905E+00
 CE -1.480986041925E-02  2.173732376795E+00  3.230136241647E+00
 CE  3.767808240228E+00 -4.383704491267E+00  3.176788335997E+00
 CE  5.651602116410E+00 -1.156414002804E+00  3.204633578716E+00
 CE  3.762917170296E+00  2.234914288800E+00  3.284226156089E+00
 CE  7.536833055471E+00 -4.350481004066E+00  3.306470331940E+00
 CE -1.900695697276E+00 -1.106087591909E+00  3.193997527282E+00
 CE -3.725219989038E+00  2.177318310129E+00  3.275959132654E+00
 CE  9.134736531509E-03 -4.325005087035E+00  3.167028970867E+00
 O  -5.067303197840E-03 -1.955448636055E-02  2.405828685857E+00
 O  -1.917818031177E+00  3.250563525474E+00  2.403353746345E+00
 O   1.891720640541E+01  4.444089508586E+00  4.074841629542E+00
 O   3.786538611613E+00 -6.294948116800E-02  2.466728325350E+00
 O   1.522415330222E+01  4.508170697387E+00  4.086452169205E+00
 O   1.706991579493E+01  3.234346686004E+00  2.455830877215E+00
 O  -3.860100019527E+00  2.342023767261E-02  2.439820920148E+00
 O   1.695717373702E+01  7.595145433590E+00  3.985854515354E+00
 O   1.321858651982E+01  7.614633628128E+00  3.998819121070E+00
 O   1.874828935486E+00 -1.058752675860E+00  8.538143784675E-01
 O   5.138250552697E-03  2.176534507845E+00  8.688757254360E-01
 O   3.756901770685E+00 -4.370322733217E+00  8.390734583389E-01
 O   5.660046845804E+00 -1.100967493025E+00  8.361169381190E-01
 O   3.770969030894E+00  2.185952149638E+00  8.726140985855E-01
 O   1.893122546962E+01  6.611596275601E+00  2.410086262102E+00
 O  -1.913177762877E+00 -1.068490970060E+00  8.602758513174E-01
 O  -3.753015730406E+00  2.159006632751E+00  8.405339395378E-01
 O   1.508817254841E+01  6.554022205145E+00  2.367049641807E+00
 CE  1.861587474414E-03  5.918669164469E-03  2.900404007990E-02
 CE -1.888464248344E+00  3.251065285488E+00  1.987371519306E-02
 CE  1.886784398474E+00 -3.249042012905E+00  3.240401124264E-02
 CE  3.765292871630E+00  1.073592188963E-02  6.264930732118E-02
 CE  1.893889908349E+00  3.276078760000E+00  5.718229140873E-02
 CE  5.657403804729E+00 -3.266537833865E+00  2.438290304663E-02
 CE -3.784044060848E+00 -8.964689775384E-04  3.994610442036E-02
 CE -5.649534424453E+00  3.243325240563E+00  4.961276294401E-02
 CE -1.907410950506E+00 -3.268491505822E+00  3.808683419624E-02
 O  -1.880553363813E+00  1.083594932738E+00 -7.847043679228E-01
 O  -3.775192487849E+00  4.346377065355E+00 -7.780366622215E-01
 O  -8.642710702460E-03 -2.176423373395E+00 -7.652491861206E-01
 O   1.885855272019E+00  1.098672604183E+00 -7.711720932734E-01
 O   3.796667587196E-03  4.344358235060E+00 -7.793414940758E-01
 O   3.759980044836E+00 -2.171529316131E+00 -7.696341796858E-01
 O  -5.666087507239E+00  1.082310787225E+00 -7.653612575551E-01
 O  -7.535237529417E+00  4.342978091783E+00 -7.624676948672E-01
 O  -3.775456421799E+00 -2.180802704028E+00 -7.823811958166E-01
 O   0.000000000000E+00  0.000000000000E+00 -2.343480358560E+00
 O  -1.882406888562E+00  3.261739648261E+00 -2.343480358560E+00
 O   1.882406888567E+00 -3.261739648256E+00 -2.343480358560E+00
 O   3.773205140975E+00  4.913315839428E-03 -2.343480358560E+00
 O   1.890798252405E+00  3.266652964107E+00 -2.343480358560E+00
 O   5.655612029551E+00 -3.256826332417E+00 -2.343480358560E+00
 O  -3.773205140975E+00 -4.913315849428E-03 -2.343480358560E+00
 O  -5.655612029551E+00  3.256826332417E+00 -2.343480358560E+00
 O  -1.890798252410E+00 -3.266652964102E+00 -2.343480358560E+00
 CE -1.885204009847E+00  1.085608777471E+00 -3.124640478080E+00
 CE -3.767610898404E+00  4.347348425737E+00 -3.124640478080E+00
 CE -2.797121279429E-03 -2.176130870786E+00 -3.124640478080E+00
 CE  1.888001131127E+00  1.090522093316E+00 -3.124640478080E+00
 CE  5.594242562861E-03  4.352261741578E+00 -3.124640478080E+00
 CE  3.770408019694E+00 -2.171217554945E+00 -3.124640478080E+00
 CE -5.658409150863E+00  1.080695461613E+00 -3.124640478080E+00
 CE -7.540816039385E+00  4.342435109897E+00 -3.124640478080E+00
 CE -3.776002262258E+00 -2.181044186635E+00 -3.124640478080E+00
 O   1.885204009847E+00 -1.085608777471E+00 -3.905800597599E+00
 O   2.797121279429E-03  2.176130870786E+00 -3.905800597599E+00
 O   3.767610898404E+00 -4.347348425737E+00 -3.905800597599E+00
 O   5.658409150863E+00 -1.080695461613E+00 -3.905800597599E+00
 O   3.776002262262E+00  2.181044186636E+00 -3.905800597599E+00
 O   7.540816039385E+00 -4.342435109897E+00 -3.905800597599E+00
 O  -1.888001131127E+00 -1.090522093316E+00 -3.905800597599E+00
 O  -3.770408019697E+00  2.171217554944E+00 -3.905800597599E+00
 O  -5.594242563862E-03 -4.352261741579E+00 -3.905800597599E+00
 O   6.509284364305E+00  1.920387313732E+01  6.663258469661E+00
 H   1.828368894829E-01 -8.976937043920E+00  5.254721704549E+00
 H   7.380901117817E+00  1.875068405642E+01  6.645065162224E+00
 H   5.839000611206E+00  1.852365046622E+01  6.438721963083E+00
 O   1.957160541393E+00 -5.105171389556E+00  6.665421898362E+00
 H   1.938614026537E+00 -5.106157516483E+00  5.656679453122E+00
 H   1.096338791040E+00 -4.716054949199E+00  6.917979232944E+00
 O   5.308356381079E+00 -8.105851334060E+00  5.921435972629E+00
 H   5.173801417332E+00 -7.264499359518E+00  6.428663925906E+00
 H   4.408779164138E+00 -8.406879337777E+00  5.653248176748E+00
 O  -6.353660019868E+00 -5.518897845727E+00  6.650853436473E+00
 H  -6.240267959167E+00 -5.448113208162E+00  5.653523899857E+00
 H   4.079006555563E+00 -5.161547094165E+00  6.879232543007E+00
 H  -1.077875986238E+01  1.805237690759E+01  5.704799576905E+00
 O  -1.009779103548E+01  1.873370228396E+01  5.888478912540E+00
 H  -1.058829455547E+01  1.957488376524E+01  6.021436620799E+00
 H   1.947713170279E+00 -6.788889000833E+00  6.418200022021E+00
 O   2.077551167995E+00 -7.650321179515E+00  5.934439076383E+00
 H   1.703261766578E+00 -8.380352029624E+00  6.458455394121E+00
 H  -2.481361514207E+00 -7.967524310848E+00  6.768037567335E+00
 O  -2.796999892171E+00 -7.487718200344E+00  5.988253414611E+00
 H  -3.417549101504E+00 -8.098851798009E+00  5.484842275094E+00
 O  -9.309889955484E-01 -4.220138497124E+00  6.463215803451E+00
 H  -1.329103705371E+00 -4.685730948295E+00  5.669906974560E+00
 H  -1.586195061007E+00 -4.383626607342E+00  7.160976965637E+00
 H  -1.726605018838E+00 -2.371936428335E+00  6.255383577302E+00
 O   3.348982895279E+00 -1.140571572080E+01  5.983083350617E+00
 H  -3.010051881317E+00 -2.041919885121E+00  5.413702775395E+00
 H  -3.417046747450E+00 -5.711816574729E+00  6.050791038494E+00
 H  -4.631504245552E+00 -4.794608432888E+00  6.410603166468E+00
 O  -3.742605925474E+00 -4.783197997839E+00  5.990118748700E+00
 O   4.913571478067E+00  1.728524501827E+01  5.063274947726E+00
 O   3.675606731665E+00  1.735526836483E+01  4.250133664862E+00
