  114
CERIA BULK                              
 O  -1.830957875508E+00  1.149429338733E+00  4.155236087489E+00
 O  -3.658162757294E+00  4.301389093995E+00  3.973064407163E+00
 O   1.456985970200E-02 -2.009168622507E+00  4.224283972435E+00
 O   1.864027962162E+00  1.152602851296E+00  4.071863313350E+00
 O  -6.401400790002E-04  4.278837700634E+00  4.126194603359E+00
 O  -5.696145065463E+00  1.067305227547E+00  4.060745088969E+00
 O  -7.608506671830E+00  4.254714899018E+00  3.985452844481E+00
 O  -3.814335862339E+00 -2.104395673505E+00  3.951430957546E+00
 CE  1.838268435500E+00 -9.598326789460E-01  3.185703435650E+00
 CE  2.080100141700E-02  2.191059935984E+00  3.165405277899E+00
 CE  3.755269108297E+00 -4.517227485918E+00  3.192318946163E+00
 CE  5.716822023561E+00 -1.012242504432E+00  3.152236874653E+00
 CE  3.748707754374E+00  2.241502028381E+00  3.170430096154E+00
 CE  7.538522492462E+00 -4.370396330721E+00  3.374193112550E+00
 CE -1.908930879581E+00 -1.055593906559E+00  3.297080928870E+00
 CE -3.779892929166E+00  2.212385391989E+00  3.296081882095E+00
 CE  1.565587011200E-02 -4.358300913151E+00  3.405095086334E+00
 O  -2.603775270000E-04 -1.010727544300E-02  2.438759666069E+00
 O  -1.848690997856E+00  3.235858105686E+00  2.369427708376E+00
 O   2.028455407428E+00 -3.123787532647E+00  2.617226401350E+00
 O   3.752131195654E+00 -4.706233220700E-02  2.405500012037E+00
 O   1.849925781472E+00  3.322290409965E+00  2.371779030966E+00
 O   5.458527167138E+00 -3.207392747833E+00  2.607578876967E+00
 O  -3.752747848943E+00  9.081300874400E-02  2.425455930318E+00
 O  -5.651275779885E+00  3.258075416928E+00  2.442417403604E+00
 O  -1.864836116023E+00 -3.245653580280E+00  2.566584382386E+00
 O   1.860523038524E+00 -1.070223085512E+00  8.628868954070E-01
 O   1.593760887100E-02  2.167630636458E+00  8.287215603550E-01
 O   3.757831601761E+00 -4.395165855592E+00  8.514844203860E-01
 O   5.686540549086E+00 -1.091873342024E+00  8.562803572740E-01
 O   3.750074840893E+00  2.186258437001E+00  8.458037877750E-01
 O   7.478367439186E+00 -4.291246000138E+00  9.584042592700E-01
 O  -1.897572543574E+00 -1.088278207024E+00  8.857354600860E-01
 O  -3.759562832881E+00  2.214205189319E+00  8.216508195820E-01
 O   4.806899691100E-02 -4.321170620369E+00  9.348631042370E-01
 CE -4.510280372000E-03 -2.416142523000E-03  2.964918993700E-02
 CE -1.887632006394E+00  3.272331338371E+00  7.550240644000E-03
 CE  1.876089031443E+00 -3.256717825751E+00  7.345015548400E-02
 CE  3.754578364388E+00  1.451711703400E-02  1.850845805700E-02
 CE  1.878147885960E+00  3.306648570280E+00  4.492517266600E-02
 CE  5.650105727824E+00 -3.269066132406E+00  5.852617014500E-02
 CE -3.753241701414E+00  1.646043987600E-02  1.786477676800E-02
 CE -5.638459436491E+00  3.299790316620E+00  5.436890282600E-02
 CE -1.889073546670E+00 -3.259907498409E+00  1.100592454470E-01
 O  -1.876965721691E+00  1.087792458524E+00 -7.921916771810E-01
 O  -3.773026769962E+00  4.396469714882E+00 -7.734056095880E-01
 O  -6.540372841000E-03 -2.184494130691E+00 -7.586989230020E-01
 O   1.885690909167E+00  1.099514243562E+00 -7.905271738420E-01
 O   1.381283671400E-02  4.389243304542E+00 -7.740993876660E-01
 O   3.766262906210E+00 -2.177436698332E+00 -7.573725183430E-01
 O  -5.654234943458E+00  1.098767211734E+00 -7.686225696230E-01
 O  -7.538708059254E+00  4.406169198545E+00 -7.231469706010E-01
 O  -3.762957441621E+00 -2.187101425051E+00 -7.714871754790E-01
 O   0.000000000000E+00  0.000000000000E+00 -2.343480358560E+00
 O  -1.881961015891E+00  3.277192728181E+00 -2.343480358560E+00
 O   1.881961015895E+00 -3.277192728176E+00 -2.343480358560E+00
 O   3.766403306687E+00  1.467029384000E-03 -2.343480358560E+00
 O   1.884442290790E+00  3.278659757563E+00 -2.343480358560E+00
 O   5.648364322592E+00 -3.275725698790E+00 -2.343480358560E+00
 O  -3.766403306687E+00 -1.467029393000E-03 -2.343480358560E+00
 O  -5.648364322592E+00  3.275725698790E+00 -2.343480358560E+00
 O  -1.884442290797E+00 -3.278659757559E+00 -2.343480358560E+00
 CE -1.882788107526E+00  1.091908566262E+00 -3.124640478080E+00
 CE -3.764749123411E+00  4.369101294447E+00 -3.124640478080E+00
 CE -8.270916299999E-04 -2.185284161912E+00 -3.124640478080E+00
 CE  1.883615199156E+00  1.093375595651E+00 -3.124640478080E+00
 CE  1.654183267000E-03  4.370568323828E+00 -3.124640478080E+00
 CE  3.765576215054E+00 -2.183817132528E+00 -3.124640478080E+00
 CE -5.649191414252E+00  1.090441536865E+00 -3.124640478080E+00
 CE -7.531152430102E+00  4.367634265066E+00 -3.124640478080E+00
 CE -3.767230398322E+00 -2.186751191298E+00 -3.124640478080E+00
 O   1.882788107526E+00 -1.091908566262E+00 -3.905800597599E+00
 O   8.270916299999E-04  2.185284161912E+00 -3.905800597599E+00
 O   3.764749123411E+00 -4.369101294447E+00 -3.905800597599E+00
 O   5.649191414252E+00 -1.090441536865E+00 -3.905800597599E+00
 O   3.767230398326E+00  2.186751191299E+00 -3.905800597599E+00
 O   7.531152430102E+00 -4.367634265066E+00 -3.905800597599E+00
 O  -1.883615199156E+00 -1.093375595651E+00 -3.905800597599E+00
 O  -3.765576215056E+00  2.183817132528E+00 -3.905800597599E+00
 O  -1.654183268000E-03 -4.370568323828E+00 -3.905800597599E+00
 H   5.852347938907E+00  7.741191492849E+00  5.187304282386E+00
 O   2.242384737371E+00  1.515760970926E+00  6.670067689766E+00
 H   2.013307717134E+00  1.390835428260E+00  5.702670734710E+00
 H   1.783671344612E+00  7.807175773830E-01  7.115222740034E+00
 O   3.788842778940E+00 -1.510711227741E+00  4.914316377017E+00
 H   4.124911700430E+00 -7.788751875790E-01  5.598286973105E+00
 H   3.691001525605E+00 -2.379250185897E+00  5.418223325581E+00
 O  -6.610873685537E+00  4.075885892080E-01  6.352355215659E+00
 H  -6.236572759039E+00  7.886878789290E-01  5.479186964904E+00
 H   3.866851461526E+00  9.384325750110E-01  6.577729878143E+00
 H   2.332761480538E+00 -4.219729627155E+00  5.828230425580E+00
 O   3.261174029527E+00 -3.870801479878E+00  5.845326284166E+00
 H   3.895744609363E+00 -4.572653137746E+00  6.262010942080E+00
 H  -1.634121314692E+00  1.808263381855E+01  6.549916954329E+00
 O  -2.338080350634E+00  1.837160164222E+01  5.941860634752E+00
 H  -2.930334078298E+00  1.760577548165E+01  5.977444577061E+00
 O  -1.638915537476E+00  1.776926722362E+00  6.617236450759E+00
 H  -1.698796713682E+00  1.415672645939E+00  5.639864689044E+00
 H  -1.471823321078E+00  1.018349449099E+00  7.193499891234E+00
 H  -3.389944051240E-01  4.171815732792E+00  5.651407790473E+00
 O  -6.889584997980E-01  4.251106842536E+00  6.602786074614E+00
 H  -1.083877994757E+00  3.350622509880E+00  6.809426219385E+00
 O   1.503724743756E+00  1.222419716128E+01  5.933889768405E+00
 H   2.333594659209E+00  1.204497994361E+01  6.426242980064E+00
 H   8.485047807110E-01  1.161115292631E+01  6.304742746545E+00
 O  -1.015444536171E+01  1.823273309973E+01  6.911143445737E+00
 H  -1.078027049164E+01  1.754011842576E+01  7.278662240743E+00
 H  -9.314107134640E+00  1.775739630992E+01  6.873456948239E+00
 O  -8.440396762110E-01  1.603367721329E+01  5.939218238286E+00
 H  -3.533521762273E+00  1.483232444314E+01  6.577640912070E+00
 O  -3.904080803433E+00  1.565470409848E+01  6.306116923659E+00
 H  -4.744235909600E+00  1.558066843505E+01  6.826311401622E+00
 O   3.800948961250E-01  1.531585238200E+01  5.608931743208E+00
 H   7.661783153333E+00  4.520424902036E+00  4.939200000000E+00
